 Osu                       SWAT+ Apr 12 2023       MODULAR Rev 2023.60.5.6                                
                                        zmx       usle_k       sumfc       sumul      usle_p     usle_ls        esco        epco     cn3_swf       perco     latq_co   tiledrain 
 sname           hydgrp                 (mm)                    (mm)        (mm)                                                                                     0=notile;1=tile;
SONGSAN         A                  1200.0000      0.0000    100.5146    285.6958      1.0000      4.9351      0.9500      0.5000      0.9500      0.9000      0.0100           0
SONGSAN         A                  1200.0000      0.0000    100.5146    285.6958      1.0000      0.8865      0.9500      0.5000      0.9500      0.9000      0.0100           0
MAEGOG          B                   800.0000      0.0000     75.6414    291.8618      1.0000      2.0122      0.9500      0.5000      0.9500      0.9000      0.0100           0
MAEGOG          B                   800.0000      0.0000     75.6414    291.8618      1.0000      1.0246      0.9500      0.5000      0.9500      0.9000      0.0100           0
SAMGAG          A                   650.0000      0.0000     54.9951    158.6199      1.0000      4.2787      0.9500      0.5000      0.9500      0.9000      0.0100           0
SAMGAG          A                   650.0000      0.0000     54.9951    158.6199      1.0000      1.1678      0.9500      0.5000      0.9500      0.9000      0.0100           0
HOEGOG          C                  1000.0000      0.0000    128.1888    269.0569      1.0000      0.7864      0.9500      0.5000      0.9500      0.5000      0.0100           0
HOEGOG          C                  1000.0000      0.0000    128.1888    269.0569      1.0000      2.6466      0.9500      0.5000      0.9500      0.5000      0.0100           0
OSAN            B                  1500.0000      0.0000    160.4436    301.6027      1.0000      4.1964      0.9500      0.5000      0.9500      0.9000      0.0100           0
OSAN            B                  1500.0000      0.0000    160.4436    301.6027      1.0000      0.8948      0.9500      0.5000      0.9500      0.9000      0.0100           0
JIGOG           B                  1000.0000      0.0000     99.9243    261.1082      1.0000      6.4674      0.9500      0.5000      0.9500      0.9000      0.0100           0
SONGSAN         A                  1200.0000      0.0000    100.5146    285.6958      1.0000      7.1410      0.9500      0.5000      0.9500      0.9000      0.0100           0
SONGSAN         A                  1200.0000      0.0000    100.5146    285.6958      1.0000      0.8940      0.9500      0.5000      0.9500      0.9000      0.0100           0
SAMGAG          A                   650.0000      0.0000     54.9951    158.6199      1.0000      6.1814      0.9500      0.5000      0.9500      0.9000      0.0100           0
SAMGAG          A                   650.0000      0.0000     54.9951    158.6199      1.0000      0.8839      0.9500      0.5000      0.9500      0.9000      0.0100           0
JIGOG           B                  1000.0000      0.0000     99.9243    261.1082      1.0000      5.9534      0.9500      0.5000      0.9500      0.9000      0.0100           0
JIGOG           B                  1000.0000      0.0000     99.9243    261.1082      1.0000      0.7283      0.9500      0.5000      0.9500      0.9000      0.0100           0
HOEGOG          C                  1000.0000      0.0000    128.1888    269.0569      1.0000      3.8655      0.9500      0.5000      0.9500      0.5000      0.0100           0
HOEGOG          C                  1000.0000      0.0000    128.1888    269.0569      1.0000      0.7952      0.9500      0.5000      0.9500      0.5000      0.0100           0
OSAN            B                  1500.0000      0.0000    160.4436    301.6027      1.0000      6.7060      0.9500      0.5000      0.9500      0.9000      0.0100           0
OSAN            B                  1500.0000      0.0000    160.4436    301.6027      1.0000      0.9078      0.9500      0.5000      0.9500      0.9000      0.0100           0
SONGSAN         A                  1200.0000      0.0000    100.5146    285.6958      1.0000      7.4638      0.9500      0.5000      0.9500      0.9000      0.0100           0
SAMGAG          A                   650.0000      0.0000     54.9951    158.6199      1.0000      4.2404      0.9500      0.5000      0.9500      0.9000      0.0100           0
SAMGAG          A                   650.0000      0.0000     54.9951    158.6199      1.0000      0.9616      0.9500      0.5000      0.9500      0.9000      0.0100           0
HOEGOG          C                  1000.0000      0.0000    128.1888    269.0569      1.0000      4.0242      0.9500      0.5000      0.9500      0.5000      0.0100           0
HOEGOG          C                  1000.0000      0.0000    128.1888    269.0569      1.0000      0.7791      0.9500      0.5000      0.9500      0.5000      0.0100           0
HOEGOG          C                  1000.0000      0.0000    128.1888    269.0569      1.0000      0.4255      0.9500      0.5000      0.9500      0.5000      0.0100           0
JIGOG           B                  1000.0000      0.0000     99.9243    261.1082      1.0000      4.7656      0.9500      0.5000      0.9500      0.9000      0.0100           0
JIGOG           B                  1000.0000      0.0000     99.9243    261.1082      1.0000      0.9701      0.9500      0.5000      0.9500      0.9000      0.0100           0
OSAN            B                  1500.0000      0.0000    160.4436    301.6027      1.0000      5.5704      0.9500      0.5000      0.9500      0.9000      0.0100           0
OSAN            B                  1500.0000      0.0000    160.4436    301.6027      1.0000      0.7102      0.9500      0.5000      0.9500      0.9000      0.0100           0
SAMGAG          A                   650.0000      0.0000     54.9951    158.6199      0.7500      2.1425      0.9500      0.5000      0.9500      0.9000      0.0100           0
SAMGAG          A                   650.0000      0.0000     54.9951    158.6199      0.7500      0.9459      0.9500      0.5000      0.9500      0.9000      0.0100           0
HOEGOG          C                  1000.0000      0.0000    128.1888    269.0569      0.7500      2.2886      0.9500      0.5000      0.9500      0.5000      0.0100           0
HOEGOG          C                  1000.0000      0.0000    128.1888    269.0569      0.7500      0.7362      0.9500      0.5000      0.9500      0.5000      0.0100           0
HOEGOG          C                  1000.0000      0.0000    128.1888    269.0569      0.7500      0.2442      0.9500      0.5000      0.9500      0.5000      0.0100           0
SONGSAN         A                  1200.0000      0.0000    100.5146    285.6958      0.7500      2.3381      0.9500      0.5000      0.9500      0.9000      0.0100           0
SONGSAN         A                  1200.0000      0.0000    100.5146    285.6958      0.7500      0.8462      0.9500      0.5000      0.9500      0.9000      0.0100           0
MAEGOG          B                   800.0000      0.0000     75.6414    291.8618      0.7500      0.9936      0.9500      0.5000      0.9500      0.9000      0.0100           0
MAEGOG          B                   800.0000      0.0000     75.6414    291.8618      0.7500      2.0354      0.9500      0.5000      0.9500      0.9000      0.0100           0
JIGOG           B                  1000.0000      0.0000     99.9243    261.1082      0.7500      1.9414      0.9500      0.5000      0.9500      0.9000      0.0100           0
JIGOG           B                  1000.0000      0.0000     99.9243    261.1082      0.7500      0.9330      0.9500      0.5000      0.9500      0.9000      0.0100           0
OSAN            B                  1500.0000      0.0000    160.4436    301.6027      0.7500      2.4368      0.9500      0.5000      0.9500      0.9000      0.0100           0
PadHOEGOG       C                   750.0000      0.0000     98.1138    230.3361      0.7500      0.7326      0.9500      0.5000      0.9500      0.5000      0.0100           0
PadHOEGOG       C                   750.0000      0.0000     98.1138    230.3361      0.7500      2.7099      0.9500      0.5000      0.9500      0.5000      0.0100           0
PadHOEGOG       C                   750.0000      0.0000     98.1138    230.3361      0.7500      0.2027      0.9500      0.5000      0.9500      0.5000      0.0100           0
PadOSAN         B                   500.0000      0.0000     57.3636    152.7197      0.7500      0.8609      0.9500      0.5000      0.9500      0.9000      0.0100           0
PadOSAN         B                   500.0000      0.0000     57.3636    152.7197      0.7500      2.9030      0.9500      0.5000      0.9500      0.9000      0.0100           0
PadSONGSAN      A                   460.0000      0.0000     47.6840    160.4423      0.7500      3.3449      0.9500      0.5000      0.9500      0.9000      0.0100           0
PadSONGSAN      A                   460.0000      0.0000     47.6840    160.4423      0.7500      0.4322      0.9500      0.5000      0.9500      0.9000      0.0100           0
PadSONGSAN      A                   460.0000      0.0000     47.6840    160.4423      0.7500      1.1914      0.9500      0.5000      0.9500      0.9000      0.0100           0
PadHOEGOG       C                   750.0000      0.0000     98.1138    230.3361      0.7500      0.7355      0.9500      0.5000      0.9500      0.5000      0.0100           0
PadHOEGOG       C                   750.0000      0.0000     98.1138    230.3361      0.7500      0.1301      0.9500      0.5000      0.9500      0.5000      0.0100           0
HOEGOG          C                  1000.0000      0.0000    128.1888    269.0569      1.0000      0.1963      0.9500      0.5000      0.9500      0.5000      0.0100           0
HOEGOG          C                  1000.0000      0.0000    128.1888    269.0569      1.0000      0.6527      0.9500      0.5000      0.9500      0.5000      0.0100           0
HOEGOG          C                  1000.0000      0.0000    128.1888    269.0569      0.7500      0.1462      0.9500      0.5000      0.9500      0.5000      0.0100           0
HOEGOG          C                  1000.0000      0.0000    128.1888    269.0569      0.7500      0.8436      0.9500      0.5000      0.9500      0.5000      0.0100           0
SONGSAN         A                  1200.0000      0.0000    100.5146    285.6958      1.0000     13.9088      0.9500      0.5000      0.9500      0.9000      0.0100           0
HOEGOG          C                  1000.0000      0.0000    128.1888    269.0569      1.0000      5.2133      0.9500      0.5000      0.9500      0.5000      0.0100           0
HOEGOG          C                  1000.0000      0.0000    128.1888    269.0569      1.0000      0.8152      0.9500      0.5000      0.9500      0.5000      0.0100           0
SONGSAN         A                  1200.0000      0.0000    100.5146    285.6958      1.0000     12.3520      0.9500      0.5000      0.9500      0.9000      0.0100           0
HOEGOG          C                  1000.0000      0.0000    128.1888    269.0569      1.0000      3.3975      0.9500      0.5000      0.9500      0.5000      0.0100           0
HOEGOG          C                  1000.0000      0.0000    128.1888    269.0569      1.0000      0.5806      0.9500      0.5000      0.9500      0.5000      0.0100           0
HOEGOG          C                  1000.0000      0.0000    128.1888    269.0569      1.0000      0.2002      0.9500      0.5000      0.9500      0.5000      0.0100           0
SONGSAN         A                  1200.0000      0.0000    100.5146    285.6958      1.0000      8.4235      0.9500      0.5000      0.9500      0.9000      0.0100           0
SONGSAN         A                  1200.0000      0.0000    100.5146    285.6958      1.0000      0.7717      0.9500      0.5000      0.9500      0.9000      0.0100           0
SONGSAN         A                  1200.0000      0.0000    100.5146    285.6958      1.0000      0.1778      0.9500      0.5000      0.9500      0.9000      0.0100           0
HOEGOG          C                  1000.0000      0.0000    128.1888    269.0569      1.0000      4.1742      0.9500      0.5000      0.9500      0.5000      0.0100           0
HOEGOG          C                  1000.0000      0.0000    128.1888    269.0569      1.0000      0.7269      0.9500      0.5000      0.9500      0.5000      0.0100           0
HOEGOG          C                  1000.0000      0.0000    128.1888    269.0569      1.0000      0.1622      0.9500      0.5000      0.9500      0.5000      0.0100           0
SUAM            B                  1200.0000      0.0000     93.4600    378.2960      1.0000      0.0650      0.9500      0.5000      0.9500      0.9000      0.0100           0
SUAM            B                  1200.0000      0.0000     93.4600    378.2960      1.0000      0.6378      0.9500      0.5000      0.9500      0.9000      0.0100           0
SUAM            B                  1200.0000      0.0000     93.4600    378.2960      1.0000      7.5256      0.9500      0.5000      0.9500      0.9000      0.0100           0
PadHOEGOG       C                   750.0000      0.0000     98.1138    230.3361      0.7500      0.9992      0.9500      0.5000      0.9500      0.5000      0.0100           0
PadHOEGOG       C                   750.0000      0.0000     98.1138    230.3361      0.7500      1.6429      0.9500      0.5000      0.9500      0.5000      0.0100           0
PadHOEGOG       C                   750.0000      0.0000     98.1138    230.3361      0.7500      0.2116      0.9500      0.5000      0.9500      0.5000      0.0100           0
PadSONGSAN      A                   460.0000      0.0000     47.6840    160.4423      0.7500      3.7166      0.9500      0.5000      0.9500      0.9000      0.0100           0
PadSONGSAN      A                   460.0000      0.0000     47.6840    160.4423      0.7500      0.3095      0.9500      0.5000      0.9500      0.9000      0.0100           0
PadSONGSAN      A                   460.0000      0.0000     47.6840    160.4423      0.7500      0.6928      0.9500      0.5000      0.9500      0.9000      0.0100           0
PadHOEGOG       C                   750.0000      0.0000     98.1138    230.3361      0.7500      0.1164      0.9500      0.5000      0.9500      0.5000      0.0100           0
PadHOEGOG       C                   750.0000      0.0000     98.1138    230.3361      0.7500      0.6890      0.9500      0.5000      0.9500      0.5000      0.0100           0
HOEGOG          C                  1000.0000      0.0000    128.1888    269.0569      1.0000      0.1383      0.9500      0.5000      0.9500      0.5000      0.0100           0
HOEGOG          C                  1000.0000      0.0000    128.1888    269.0569      1.0000      0.8721      0.9500      0.5000      0.9500      0.5000      0.0100           0
HOEGOG          C                  1000.0000      0.0000    128.1888    269.0569      1.0000      0.2790      0.9500      0.5000      0.9500      0.5000      0.0100           0
HOEGOG          C                  1000.0000      0.0000    128.1888    269.0569      1.0000      0.0650      0.9500      0.5000      0.9500      0.5000      0.0100           0
Etc             D                  1000.0000      0.0000    198.4916    450.0210      1.0000      0.0650      0.9500      0.5000      0.9500      0.0500      0.0100           0
SONGSAN         A                  1200.0000      0.0000    100.5146    285.6958      1.0000      9.9358      0.9500      0.5000      0.9500      0.9000      0.0100           0
SUAM            B                  1200.0000      0.0000     93.4600    378.2960      1.0000      6.0634      0.9500      0.5000      0.9500      0.9000      0.0100           0
SUAM            B                  1200.0000      0.0000     93.4600    378.2960      1.0000      0.6085      0.9500      0.5000      0.9500      0.9000      0.0100           0
SONGSAN         A                  1200.0000      0.0000    100.5146    285.6958      1.0000     10.3167      0.9500      0.5000      0.9500      0.9000      0.0100           0
HOEGOG          C                  1000.0000      0.0000    128.1888    269.0569      1.0000      5.4385      0.9500      0.5000      0.9500      0.5000      0.0100           0
HOEGOG          C                  1000.0000      0.0000    128.1888    269.0569      1.0000      0.3102      0.9500      0.5000      0.9500      0.5000      0.0100           0
HOEGOG          C                  1000.0000      0.0000    128.1888    269.0569      1.0000      0.5973      0.9500      0.5000      0.9500      0.5000      0.0100           0
JIGOG           B                  1000.0000      0.0000     99.9243    261.1082      1.0000      4.3821      0.9500      0.5000      0.9500      0.9000      0.0100           0
JIGOG           B                  1000.0000      0.0000     99.9243    261.1082      1.0000      0.5882      0.9500      0.5000      0.9500      0.9000      0.0100           0
SONGSAN         A                  1200.0000      0.0000    100.5146    285.6958      0.7500      0.6978      0.9500      0.5000      0.9500      0.9000      0.0100           0
SONGSAN         A                  1200.0000      0.0000    100.5146    285.6958      0.7500      0.4342      0.9500      0.5000      0.9500      0.9000      0.0100           0
SONGSAN         A                  1200.0000      0.0000    100.5146    285.6958      0.7500      3.6229      0.9500      0.5000      0.9500      0.9000      0.0100           0
HOEGOG          C                  1000.0000      0.0000    128.1888    269.0569      0.7500      0.2769      0.9500      0.5000      0.9500      0.5000      0.0100           0
HOEGOG          C                  1000.0000      0.0000    128.1888    269.0569      0.7500      0.6913      0.9500      0.5000      0.9500      0.5000      0.0100           0
HOEGOG          C                  1000.0000      0.0000    128.1888    269.0569      0.7500      1.9107      0.9500      0.5000      0.9500      0.5000      0.0100           0
ANRYONG         B                   900.0000      0.0000    109.3640    221.8517      0.7500      3.4796      0.9500      0.5000      0.9500      0.9000      0.0100           0
CHILGOG         B                   630.0000      0.0000     80.5840    291.9000      0.7500      0.3726      0.9500      0.5000      0.9500      0.9000      0.0100           0
CHILGOG         B                   630.0000      0.0000     80.5840    291.9000      0.7500      0.5542      0.9500      0.5000      0.9500      0.9000      0.0100           0
MAEGOG          B                   800.0000      0.0000     75.6414    291.8618      0.7500      2.1421      0.9500      0.5000      0.9500      0.9000      0.0100           0
MAEGOG          B                   800.0000      0.0000     75.6414    291.8618      0.7500      1.2732      0.9500      0.5000      0.9500      0.9000      0.0100           0
JIGOG           B                  1000.0000      0.0000     99.9243    261.1082      0.7500      0.7986      0.9500      0.5000      0.9500      0.9000      0.0100           0
PadHOEGOG       C                   750.0000      0.0000     98.1138    230.3361      0.7500      0.2076      0.9500      0.5000      0.9500      0.5000      0.0100           0
PadHOEGOG       C                   750.0000      0.0000     98.1138    230.3361      0.7500      1.0008      0.9500      0.5000      0.9500      0.5000      0.0100           0
PadHOEGOG       C                   750.0000      0.0000     98.1138    230.3361      0.7500      1.5024      0.9500      0.5000      0.9500      0.5000      0.0100           0
PadCHILGOG      B                   450.0000      0.0000     55.0001    198.5205      0.7500      0.6601      0.9500      0.5000      0.9500      0.9000      0.0100           0
PadANRYONG      B                   450.0000      0.0000     54.6135    147.2945      0.7500      0.9436      0.9500      0.5000      0.9500      0.9000      0.0100           0
PadSONGSAN      A                   460.0000      0.0000     47.6840    160.4423      0.7500      0.6046      0.9500      0.5000      0.9500      0.9000      0.0100           0
PadSONGSAN      A                   460.0000      0.0000     47.6840    160.4423      0.7500      6.7325      0.9500      0.5000      0.9500      0.9000      0.0100           0
Etc             D                  1000.0000      0.0000    198.4916    450.0210      1.0000      0.5496      0.9500      0.5000      0.9500      0.0500      0.0100           0
Etc             D                  1000.0000      0.0000    198.4916    450.0210      1.0000      0.0771      0.9500      0.5000      0.9500      0.0500      0.0100           0
SONGSAN         A                  1200.0000      0.0000    100.5146    285.6958      1.0000      0.0936      0.9500      0.5000      0.9500      0.9000      0.0100           0
SONGSAN         A                  1200.0000      0.0000    100.5146    285.6958      1.0000      1.6471      0.9500      0.5000      0.9500      0.9000      0.0100           0
SONGSAN         A                  1200.0000      0.0000    100.5146    285.6958      1.0000      0.9635      0.9500      0.5000      0.9500      0.9000      0.0100           0
HOEGOG          C                  1000.0000      0.0000    128.1888    269.0569      1.0000      0.1404      0.9500      0.5000      0.9500      0.5000      0.0100           0
HOEGOG          C                  1000.0000      0.0000    128.1888    269.0569      1.0000      0.6283      0.9500      0.5000      0.9500      0.5000      0.0100           0
Etc             D                  1000.0000      0.0000    198.4916    450.0210      1.0000      0.0650      0.9500      0.5000      0.9500      0.0500      0.0100           0
SONGSAN         A                  1200.0000      0.0000    100.5146    285.6958      1.0000      0.0662      0.9500      0.5000      0.9500      0.9000      0.0100           0
HOEGOG          C                  1000.0000      0.0000    128.1888    269.0569      1.0000      0.0666      0.9500      0.5000      0.9500      0.5000      0.0100           0
Etc             D                  1000.0000      0.0000    198.4916    450.0210      1.0000      0.1972      0.9500      0.5000      0.9500      0.0500      0.0100           0
HOEGOG          C                  1000.0000      0.0000    128.1888    269.0569      1.0000      3.8787      0.9500      0.5000      0.9500      0.5000      0.0100           0
HOEGOG          C                  1000.0000      0.0000    128.1888    269.0569      1.0000      0.1126      0.9500      0.5000      0.9500      0.5000      0.0100           0
HOEGOG          C                  1000.0000      0.0000    128.1888    269.0569      1.0000      0.7546      0.9500      0.5000      0.9500      0.5000      0.0100           0
SONGSAN         A                  1200.0000      0.0000    100.5146    285.6958      1.0000      0.6157      0.9500      0.5000      0.9500      0.9000      0.0100           0
SONGSAN         A                  1200.0000      0.0000    100.5146    285.6958      1.0000      0.0650      0.9500      0.5000      0.9500      0.9000      0.0100           0
SONGSAN         A                  1200.0000      0.0000    100.5146    285.6958      1.0000      2.3493      0.9500      0.5000      0.9500      0.9000      0.0100           0
HOEGOG          C                  1000.0000      0.0000    128.1888    269.0569      1.0000      0.7455      0.9500      0.5000      0.9500      0.5000      0.0100           0
HOEGOG          C                  1000.0000      0.0000    128.1888    269.0569      1.0000      0.0975      0.9500      0.5000      0.9500      0.5000      0.0100           0
CHILGOG         B                   630.0000      0.0000     80.5840    291.9000      1.0000      0.3670      0.9500      0.5000      0.9500      0.9000      0.0100           0
PadHOEGOG       C                   750.0000      0.0000     98.1138    230.3361      0.7500      0.6933      0.9500      0.5000      0.9500      0.5000      0.0100           0
PadHOEGOG       C                   750.0000      0.0000     98.1138    230.3361      0.7500      0.2353      0.9500      0.5000      0.9500      0.5000      0.0100           0
SONGSAN         A                  1200.0000      0.0000    100.5146    285.6958      1.0000      1.8086      0.9500      0.5000      0.9500      0.9000      0.0100           0
SONGSAN         A                  1200.0000      0.0000    100.5146    285.6958      1.0000      0.7661      0.9500      0.5000      0.9500      0.9000      0.0100           0
HOEGOG          C                  1000.0000      0.0000    128.1888    269.0569      1.0000      0.7148      0.9500      0.5000      0.9500      0.5000      0.0100           0
HOEGOG          C                  1000.0000      0.0000    128.1888    269.0569      1.0000      0.0839      0.9500      0.5000      0.9500      0.5000      0.0100           0
SONGSAN         A                  1200.0000      0.0000    100.5146    285.6958      0.7500      0.5890      0.9500      0.5000      0.9500      0.9000      0.0100           0
HOEGOG          C                  1000.0000      0.0000    128.1888    269.0569      0.7500      0.5819      0.9500      0.5000      0.9500      0.5000      0.0100           0
SONGSAN         A                  1200.0000      0.0000    100.5146    285.6958      1.0000     13.4089      0.9500      0.5000      0.9500      0.9000      0.0100           0
SUAM            B                  1200.0000      0.0000     93.4600    378.2960      1.0000      8.1463      0.9500      0.5000      0.9500      0.9000      0.0100           0
SUAM            B                  1200.0000      0.0000     93.4600    378.2960      1.0000      0.9314      0.9500      0.5000      0.9500      0.9000      0.0100           0
SONGSAN         A                  1200.0000      0.0000    100.5146    285.6958      1.0000     12.5832      0.9500      0.5000      0.9500      0.9000      0.0100           0
SUAM            B                  1200.0000      0.0000     93.4600    378.2960      1.0000      7.6047      0.9500      0.5000      0.9500      0.9000      0.0100           0
SUAM            B                  1200.0000      0.0000     93.4600    378.2960      1.0000      0.8445      0.9500      0.5000      0.9500      0.9000      0.0100           0
SUAM            B                  1200.0000      0.0000     93.4600    378.2960      1.0000      0.2348      0.9500      0.5000      0.9500      0.9000      0.0100           0
JIGOG           B                  1000.0000      0.0000     99.9243    261.1082      1.0000      6.1807      0.9500      0.5000      0.9500      0.9000      0.0100           0
JIGOG           B                  1000.0000      0.0000     99.9243    261.1082      1.0000      0.8377      0.9500      0.5000      0.9500      0.9000      0.0100           0
JIGOG           B                  1000.0000      0.0000     99.9243    261.1082      1.0000      0.3397      0.9500      0.5000      0.9500      0.9000      0.0100           0
HOEGOG          C                  1000.0000      0.0000    128.1888    269.0569      1.0000      0.5850      0.9500      0.5000      0.9500      0.5000      0.0100           0
HOEGOG          C                  1000.0000      0.0000    128.1888    269.0569      1.0000      7.3108      0.9500      0.5000      0.9500      0.5000      0.0100           0
SONGSAN         A                  1200.0000      0.0000    100.5146    285.6958      1.0000      9.3684      0.9500      0.5000      0.9500      0.9000      0.0100           0
SONGSAN         A                  1200.0000      0.0000    100.5146    285.6958      1.0000      0.7772      0.9500      0.5000      0.9500      0.9000      0.0100           0
HOEGOG          C                  1000.0000      0.0000    128.1888    269.0569      1.0000      0.7483      0.9500      0.5000      0.9500      0.5000      0.0100           0
HOEGOG          C                  1000.0000      0.0000    128.1888    269.0569      1.0000      2.0711      0.9500      0.5000      0.9500      0.5000      0.0100           0
JIGOG           B                  1000.0000      0.0000     99.9243    261.1082      1.0000      2.1965      0.9500      0.5000      0.9500      0.9000      0.0100           0
JIGOG           B                  1000.0000      0.0000     99.9243    261.1082      1.0000      0.6115      0.9500      0.5000      0.9500      0.9000      0.0100           0
JIGOG           B                  1000.0000      0.0000     99.9243    261.1082      1.0000      0.3037      0.9500      0.5000      0.9500      0.9000      0.0100           0
SUAM            B                  1200.0000      0.0000     93.4600    378.2960      1.0000      3.7393      0.9500      0.5000      0.9500      0.9000      0.0100           0
SUAM            B                  1200.0000      0.0000     93.4600    378.2960      1.0000      0.6871      0.9500      0.5000      0.9500      0.9000      0.0100           0
Etc             D                  1000.0000      0.0000    198.4916    450.0210      1.0000      0.0650      0.9500      0.5000      0.9500      0.0500      0.0100           0
JIGOG           B                  1000.0000      0.0000     99.9243    261.1082      1.0000      0.1898      0.9500      0.5000      0.9500      0.9000      0.0100           0
HOEGOG          C                  1000.0000      0.0000    128.1888    269.0569      1.0000      0.1443      0.9500      0.5000      0.9500      0.5000      0.0100           0
HOEGOG          C                  1000.0000      0.0000    128.1888    269.0569      1.0000      0.6261      0.9500      0.5000      0.9500      0.5000      0.0100           0
SONGSAN         A                  1200.0000      0.0000    100.5146    285.6958      1.0000      0.1291      0.9500      0.5000      0.9500      0.9000      0.0100           0
SONGSAN         A                  1200.0000      0.0000    100.5146    285.6958      1.0000      0.6305      0.9500      0.5000      0.9500      0.9000      0.0100           0
PadHOEGOG       C                   750.0000      0.0000     98.1138    230.3361      0.7500      0.1131      0.9500      0.5000      0.9500      0.5000      0.0100           0
PadHOEGOG       C                   750.0000      0.0000     98.1138    230.3361      0.7500      0.7374      0.9500      0.5000      0.9500      0.5000      0.0100           0
PadSONGSAN      A                   460.0000      0.0000     47.6840    160.4423      0.7500      0.0986      0.9500      0.5000      0.9500      0.9000      0.0100           0
HOEGOG          C                  1000.0000      0.0000    128.1888    269.0569      1.0000      0.3275      0.9500      0.5000      0.9500      0.5000      0.0100           0
HOEGOG          C                  1000.0000      0.0000    128.1888    269.0569      1.0000      0.9600      0.9500      0.5000      0.9500      0.5000      0.0100           0
SONGSAN         A                  1200.0000      0.0000    100.5146    285.6958      1.0000      0.2400      0.9500      0.5000      0.9500      0.9000      0.0100           0
SONGSAN         A                  1200.0000      0.0000    100.5146    285.6958      1.0000      0.6385      0.9500      0.5000      0.9500      0.9000      0.0100           0
SUAM            B                  1200.0000      0.0000     93.4600    378.2960      1.0000      0.7286      0.9500      0.5000      0.9500      0.9000      0.0100           0
SUAM            B                  1200.0000      0.0000     93.4600    378.2960      1.0000      0.1052      0.9500      0.5000      0.9500      0.9000      0.0100           0
SUAM            B                  1200.0000      0.0000     93.4600    378.2960      1.0000      2.3388      0.9500      0.5000      0.9500      0.9000      0.0100           0
HOEGOG          C                  1000.0000      0.0000    128.1888    269.0569      0.7500      0.5502      0.9500      0.5000      0.9500      0.5000      0.0100           0
HOEGOG          C                  1000.0000      0.0000    128.1888    269.0569      0.7500      0.1773      0.9500      0.5000      0.9500      0.5000      0.0100           0
HOEGOG          C                  1000.0000      0.0000    128.1888    269.0569      1.0000      0.3535      0.9500      0.5000      0.9500      0.5000      0.0100           0
HOEGOG          C                  1000.0000      0.0000    128.1888    269.0569      1.0000      0.6762      0.9500      0.5000      0.9500      0.5000      0.0100           0
SONGSAN         A                  1200.0000      0.0000    100.5146    285.6958      1.0000      0.6565      0.9500      0.5000      0.9500      0.9000      0.0100           0
JIGOG           B                  1000.0000      0.0000     99.9243    261.1082      1.0000      0.1792      0.9500      0.5000      0.9500      0.9000      0.0100           0
JIGOG           B                  1000.0000      0.0000     99.9243    261.1082      1.0000      0.7604      0.9500      0.5000      0.9500      0.9000      0.0100           0
SUAM            B                  1200.0000      0.0000     93.4600    378.2960      1.0000      0.1233      0.9500      0.5000      0.9500      0.9000      0.0100           0
SUAM            B                  1200.0000      0.0000     93.4600    378.2960      1.0000      0.7372      0.9500      0.5000      0.9500      0.9000      0.0100           0
SUAM            B                  1200.0000      0.0000     93.4600    378.2960      1.0000      1.6633      0.9500      0.5000      0.9500      0.9000      0.0100           0
HOEGOG          C                  1000.0000      0.0000    128.1888    269.0569      1.0000      0.7608      0.9500      0.5000      0.9500      0.5000      0.0100           0
HOEGOG          C                  1000.0000      0.0000    128.1888    269.0569      1.0000      0.3543      0.9500      0.5000      0.9500      0.5000      0.0100           0
SUAM            B                  1200.0000      0.0000     93.4600    378.2960      1.0000      0.1016      0.9500      0.5000      0.9500      0.9000      0.0100           0
HOEGOG          C                  1000.0000      0.0000    128.1888    269.0569      1.0000      0.1703      0.9500      0.5000      0.9500      0.5000      0.0100           0
HOEGOG          C                  1000.0000      0.0000    128.1888    269.0569      1.0000      0.7996      0.9500      0.5000      0.9500      0.5000      0.0100           0
JIGOG           B                  1000.0000      0.0000     99.9243    261.1082      1.0000      0.2381      0.9500      0.5000      0.9500      0.9000      0.0100           0
JIGOG           B                  1000.0000      0.0000     99.9243    261.1082      1.0000      0.7990      0.9500      0.5000      0.9500      0.9000      0.0100           0
HOEGOG          C                  1000.0000      0.0000    128.1888    269.0569      1.0000      0.5614      0.9500      0.5000      0.9500      0.5000      0.0100           0
HOEGOG          C                  1000.0000      0.0000    128.1888    269.0569      1.0000      0.2779      0.9500      0.5000      0.9500      0.5000      0.0100           0
SONGSAN         A                  1200.0000      0.0000    100.5146    285.6958      1.0000      0.4238      0.9500      0.5000      0.9500      0.9000      0.0100           0
SUAM            B                  1200.0000      0.0000     93.4600    378.2960      1.0000      0.7407      0.9500      0.5000      0.9500      0.9000      0.0100           0
HOEGOG          C                  1000.0000      0.0000    128.1888    269.0569      1.0000      0.1672      0.9500      0.5000      0.9500      0.5000      0.0100           0
HOEGOG          C                  1000.0000      0.0000    128.1888    269.0569      1.0000      0.6781      0.9500      0.5000      0.9500      0.5000      0.0100           0
SONGSAN         A                  1200.0000      0.0000    100.5146    285.6958      1.0000      7.3102      0.9500      0.5000      0.9500      0.9000      0.0100           0
JIGOG           B                  1000.0000      0.0000     99.9243    261.1082      1.0000      4.8107      0.9500      0.5000      0.9500      0.9000      0.0100           0
JIGOG           B                  1000.0000      0.0000     99.9243    261.1082      1.0000      1.0622      0.9500      0.5000      0.9500      0.9000      0.0100           0
HOEGOG          C                  1000.0000      0.0000    128.1888    269.0569      1.0000      4.1565      0.9500      0.5000      0.9500      0.5000      0.0100           0
HOEGOG          C                  1000.0000      0.0000    128.1888    269.0569      1.0000      0.8352      0.9500      0.5000      0.9500      0.5000      0.0100           0
JIGOG           B                  1000.0000      0.0000     99.9243    261.1082      1.0000      3.6844      0.9500      0.5000      0.9500      0.9000      0.0100           0
JIGOG           B                  1000.0000      0.0000     99.9243    261.1082      1.0000      0.6929      0.9500      0.5000      0.9500      0.9000      0.0100           0
SONGSAN         A                  1200.0000      0.0000    100.5146    285.6958      1.0000      0.8091      0.9500      0.5000      0.9500      0.9000      0.0100           0
SONGSAN         A                  1200.0000      0.0000    100.5146    285.6958      1.0000      5.1340      0.9500      0.5000      0.9500      0.9000      0.0100           0
HOEGOG          C                  1000.0000      0.0000    128.1888    269.0569      1.0000      3.4246      0.9500      0.5000      0.9500      0.5000      0.0100           0
HOEGOG          C                  1000.0000      0.0000    128.1888    269.0569      1.0000      0.9539      0.9500      0.5000      0.9500      0.5000      0.0100           0
ANRYONG         B                   900.0000      0.0000    109.3640    221.8517      1.0000      4.2026      0.9500      0.5000      0.9500      0.9000      0.0100           0
SONGSAN         A                  1200.0000      0.0000    100.5146    285.6958      0.7500      0.8656      0.9500      0.5000      0.9500      0.9000      0.0100           0
SONGSAN         A                  1200.0000      0.0000    100.5146    285.6958      0.7500      2.6228      0.9500      0.5000      0.9500      0.9000      0.0100           0
SONGSAN         A                  1200.0000      0.0000    100.5146    285.6958      0.7500      0.2911      0.9500      0.5000      0.9500      0.9000      0.0100           0
JIGOG           B                  1000.0000      0.0000     99.9243    261.1082      0.7500      0.8812      0.9500      0.5000      0.9500      0.9000      0.0100           0
JIGOG           B                  1000.0000      0.0000     99.9243    261.1082      0.7500      2.6893      0.9500      0.5000      0.9500      0.9000      0.0100           0
JIGOG           B                  1000.0000      0.0000     99.9243    261.1082      0.7500      0.2120      0.9500      0.5000      0.9500      0.9000      0.0100           0
HOEGOG          C                  1000.0000      0.0000    128.1888    269.0569      0.7500      2.3502      0.9500      0.5000      0.9500      0.5000      0.0100           0
HOEGOG          C                  1000.0000      0.0000    128.1888    269.0569      0.7500      0.7412      0.9500      0.5000      0.9500      0.5000      0.0100           0
HOEGOG          C                  1000.0000      0.0000    128.1888    269.0569      0.7500      0.2386      0.9500      0.5000      0.9500      0.5000      0.0100           0
MAEGOG          B                   800.0000      0.0000     75.6414    291.8618      0.7500      0.5755      0.9500      0.5000      0.9500      0.9000      0.0100           0
MAEGOG          B                   800.0000      0.0000     75.6414    291.8618      0.7500      0.2454      0.9500      0.5000      0.9500      0.9000      0.0100           0
ANRYONG         B                   900.0000      0.0000    109.3640    221.8517      0.7500      0.9234      0.9500      0.5000      0.9500      0.9000      0.0100           0
ANRYONG         B                   900.0000      0.0000    109.3640    221.8517      0.7500      2.1314      0.9500      0.5000      0.9500      0.9000      0.0100           0
JIGOG           B                  1000.0000      0.0000     99.9243    261.1082      1.0000      1.0805      0.9500      0.5000      0.9500      0.9000      0.0100           0
JIGOG           B                  1000.0000      0.0000     99.9243    261.1082      1.0000      2.4349      0.9500      0.5000      0.9500      0.9000      0.0100           0
SONGSAN         A                  1200.0000      0.0000    100.5146    285.6958      1.0000      0.3579      0.9500      0.5000      0.9500      0.9000      0.0100           0
SONGSAN         A                  1200.0000      0.0000    100.5146    285.6958      1.0000      3.5760      0.9500      0.5000      0.9500      0.9000      0.0100           0
SONGSAN         A                  1200.0000      0.0000    100.5146    285.6958      1.0000      0.9292      0.9500      0.5000      0.9500      0.9000      0.0100           0
HOEGOG          C                  1000.0000      0.0000    128.1888    269.0569      1.0000      0.5606      0.9500      0.5000      0.9500      0.5000      0.0100           0
PadJIGOG        B                   750.0000      0.0000     80.9193    215.7874      0.7500      0.3886      0.9500      0.5000      0.9500      0.9000      0.0100           0
PadJIGOG        B                   750.0000      0.0000     80.9193    215.7874      0.7500      0.8399      0.9500      0.5000      0.9500      0.9000      0.0100           0
PadJIGOG        B                   750.0000      0.0000     80.9193    215.7874      0.7500      1.7216      0.9500      0.5000      0.9500      0.9000      0.0100           0
PadHOEGOG       C                   750.0000      0.0000     98.1138    230.3361      0.7500      0.2448      0.9500      0.5000      0.9500      0.5000      0.0100           0
PadHOEGOG       C                   750.0000      0.0000     98.1138    230.3361      0.7500      0.5922      0.9500      0.5000      0.9500      0.5000      0.0100           0
PadHOEGOG       C                   750.0000      0.0000     98.1138    230.3361      0.7500      2.3934      0.9500      0.5000      0.9500      0.5000      0.0100           0
PadSONGSAN      A                   460.0000      0.0000     47.6840    160.4423      0.7500      1.0705      0.9500      0.5000      0.9500      0.9000      0.0100           0
PadSONGSAN      A                   460.0000      0.0000     47.6840    160.4423      0.7500      3.5520      0.9500      0.5000      0.9500      0.9000      0.0100           0
PadNAMGYE       B                   380.0000      0.0000     30.9642    133.3507      0.7500      0.1258      0.9500      0.5000      0.9500      0.9000      0.0100           0
PadNAMGYE       B                   380.0000      0.0000     30.9642    133.3507      0.7500      0.9074      0.9500      0.5000      0.9500      0.9000      0.0100           0
PadMAEGOG       B                   550.0000      0.0000     55.7389    254.1411      0.7500      0.2409      0.9500      0.5000      0.9500      0.9000      0.0100           0
PadMAEGOG       B                   550.0000      0.0000     55.7389    254.1411      0.7500      0.6249      0.9500      0.5000      0.9500      0.9000      0.0100           0
HOEGOG          C                  1000.0000      0.0000    128.1888    269.0569      1.0000      0.2106      0.9500      0.5000      0.9500      0.5000      0.0100           0
HOEGOG          C                  1000.0000      0.0000    128.1888    269.0569      1.0000      0.9825      0.9500      0.5000      0.9500      0.5000      0.0100           0
Etc             D                  1000.0000      0.0000    198.4916    450.0210      1.0000      0.2751      0.9500      0.5000      0.9500      0.0500      0.0100           0
Etc             D                  1000.0000      0.0000    198.4916    450.0210      1.0000      0.5857      0.9500      0.5000      0.9500      0.0500      0.0100           0
NAMGYE          B                  1000.0000      0.0000     56.6880    258.6422      1.0000      0.4042      0.9500      0.5000      0.9500      0.9000      0.0100           0
HOEGOG          C                  1000.0000      0.0000    128.1888    269.0569      1.0000      0.1299      0.9500      0.5000      0.9500      0.5000      0.0100           0
HOEGOG          C                  1000.0000      0.0000    128.1888    269.0569      1.0000      0.8030      0.9500      0.5000      0.9500      0.5000      0.0100           0
Etc             D                  1000.0000      0.0000    198.4916    450.0210      1.0000      0.1131      0.9500      0.5000      0.9500      0.0500      0.0100           0
Etc             D                  1000.0000      0.0000    198.4916    450.0210      1.0000      0.5994      0.9500      0.5000      0.9500      0.0500      0.0100           0
SONGSAN         A                  1200.0000      0.0000    100.5146    285.6958      1.0000      0.9000      0.9500      0.5000      0.9500      0.9000      0.0100           0
MAEGOG          B                   800.0000      0.0000     75.6414    291.8618      1.0000      0.0968      0.9500      0.5000      0.9500      0.9000      0.0100           0
HOEGOG          C                  1000.0000      0.0000    128.1888    269.0569      0.7500      0.0984      0.9500      0.5000      0.9500      0.5000      0.0100           0
HOEGOG          C                  1000.0000      0.0000    128.1888    269.0569      0.7500      0.6277      0.9500      0.5000      0.9500      0.5000      0.0100           0
Etc             D                  1000.0000      0.0000    198.4916    450.0210      0.7500      0.2998      0.9500      0.5000      0.9500      0.0500      0.0100           0
MAEGOG          B                   800.0000      0.0000     75.6414    291.8618      0.7500      0.0762      0.9500      0.5000      0.9500      0.9000      0.0100           0
HOEGOG          C                  1000.0000      0.0000    128.1888    269.0569      1.0000      0.1412      0.9500      0.5000      0.9500      0.5000      0.0100           0
HOEGOG          C                  1000.0000      0.0000    128.1888    269.0569      1.0000      0.8424      0.9500      0.5000      0.9500      0.5000      0.0100           0
Etc             D                  1000.0000      0.0000    198.4916    450.0210      0.7500      0.1237      0.9500      0.5000      0.9500      0.0500      0.0100           0
PadMAEGOG       B                   550.0000      0.0000     55.7389    254.1411      0.7500      0.1836      0.9500      0.5000      0.9500      0.9000      0.0100           0
PadMAEGOG       B                   550.0000      0.0000     55.7389    254.1411      0.7500      0.6424      0.9500      0.5000      0.9500      0.9000      0.0100           0
PadNAMGYE       B                   380.0000      0.0000     30.9642    133.3507      0.7500      0.1350      0.9500      0.5000      0.9500      0.9000      0.0100           0
PadNAMGYE       B                   380.0000      0.0000     30.9642    133.3507      0.7500      0.6510      0.9500      0.5000      0.9500      0.9000      0.0100           0
PadHOEGOG       C                   750.0000      0.0000     98.1138    230.3361      0.7500      0.1557      0.9500      0.5000      0.9500      0.5000      0.0100           0
PadHOEGOG       C                   750.0000      0.0000     98.1138    230.3361      0.7500      0.9832      0.9500      0.5000      0.9500      0.5000      0.0100           0
SONGSAN         A                  1200.0000      0.0000    100.5146    285.6958      1.0000      5.4148      0.9500      0.5000      0.9500      0.9000      0.0100           0
MAEGOG          B                   800.0000      0.0000     75.6414    291.8618      1.0000      0.5607      0.9500      0.5000      0.9500      0.9000      0.0100           0
MAEGOG          B                   800.0000      0.0000     75.6414    291.8618      1.0000      2.4103      0.9500      0.5000      0.9500      0.9000      0.0100           0
HWANGRYONG      A                  1500.0000      0.0000     65.6958    475.5820      1.0000      0.5360      0.9500      0.5000      0.9500      0.9000      0.0100           0
HWANGRYONG      A                  1500.0000      0.0000     65.6958    475.5820      1.0000      0.1909      0.9500      0.5000      0.9500      0.9000      0.0100           0
Etc             D                  1000.0000      0.0000    198.4916    450.0210      1.0000      0.0703      0.9500      0.5000      0.9500      0.0500      0.0100           0
UGOG            B                  1200.0000      0.0000    167.1300    453.7225      0.7500      0.3308      0.9500      0.5000      0.9500      0.9000      0.0100           0
UGOG            B                  1200.0000      0.0000    167.1300    453.7225      0.7500      0.8556      0.9500      0.5000      0.9500      0.9000      0.0100           0
UGOG            B                  1200.0000      0.0000    167.1300    453.7225      0.7500      2.1917      0.9500      0.5000      0.9500      0.9000      0.0100           0
SAMGAG          A                   650.0000      0.0000     54.9951    158.6199      0.7500      0.1861      0.9500      0.5000      0.9500      0.9000      0.0100           0
SAMGAG          A                   650.0000      0.0000     54.9951    158.6199      0.7500      3.8609      0.9500      0.5000      0.9500      0.9000      0.0100           0
SAMGAG          A                   650.0000      0.0000     54.9951    158.6199      0.7500      0.8022      0.9500      0.5000      0.9500      0.9000      0.0100           0
GACHEON         C                  1000.0000      0.0000     72.1696    268.2789      0.7500      0.2289      0.9500      0.5000      0.9500      0.5000      0.0100           0
GACHEON         C                  1000.0000      0.0000     72.1696    268.2789      0.7500      0.7913      0.9500      0.5000      0.9500      0.5000      0.0100           0
JISAN           C                  1700.0000      0.0000    253.1335    807.3875      0.7500      2.4978      0.9500      0.5000      0.9500      0.5000      0.0100           0
JISAN           C                  1700.0000      0.0000    253.1335    807.3875      0.7500      0.6492      0.9500      0.5000      0.9500      0.5000      0.0100           0
JISAN           C                  1700.0000      0.0000    253.1335    807.3875      0.7500      0.1794      0.9500      0.5000      0.9500      0.5000      0.0100           0
NAMGYE          B                  1000.0000      0.0000     56.6880    258.6422      0.7500      0.2613      0.9500      0.5000      0.9500      0.9000      0.0100           0
NAMGYE          B                  1000.0000      0.0000     56.6880    258.6422      0.7500      0.6956      0.9500      0.5000      0.9500      0.9000      0.0100           0
HOEGOG          C                  1000.0000      0.0000    128.1888    269.0569      0.7500      2.3359      0.9500      0.5000      0.9500      0.5000      0.0100           0
HOEGOG          C                  1000.0000      0.0000    128.1888    269.0569      0.7500      0.6418      0.9500      0.5000      0.9500      0.5000      0.0100           0
HOEGOG          C                  1000.0000      0.0000    128.1888    269.0569      0.7500      0.3253      0.9500      0.5000      0.9500      0.5000      0.0100           0
OSAN            B                  1500.0000      0.0000    160.4436    301.6027      0.7500      3.2009      0.9500      0.5000      0.9500      0.9000      0.0100           0
OSAN            B                  1500.0000      0.0000    160.4436    301.6027      0.7500      0.8446      0.9500      0.5000      0.9500      0.9000      0.0100           0
JIGOG           B                  1000.0000      0.0000     99.9243    261.1082      0.7500      2.4726      0.9500      0.5000      0.9500      0.9000      0.0100           0
JIGOG           B                  1000.0000      0.0000     99.9243    261.1082      0.7500      0.7203      0.9500      0.5000      0.9500      0.9000      0.0100           0
JIGOG           B                  1000.0000      0.0000     99.9243    261.1082      0.7500      0.4171      0.9500      0.5000      0.9500      0.9000      0.0100           0
IMGOG           D                  1200.0000      0.0000    154.2010    601.0446      0.7500      0.9836      0.9500      0.5000      0.9500      0.0500      0.0100           0
IMGOG           D                  1200.0000      0.0000    154.2010    601.0446      0.7500      2.4333      0.9500      0.5000      0.9500      0.0500      0.0100           0
IMGOG           D                  1200.0000      0.0000    154.2010    601.0446      0.7500      0.2617      0.9500      0.5000      0.9500      0.0500      0.0100           0
SONGSAN         A                  1200.0000      0.0000    100.5146    285.6958      0.7500      0.8732      0.9500      0.5000      0.9500      0.9000      0.0100           0
SONGSAN         A                  1200.0000      0.0000    100.5146    285.6958      0.7500      2.4457      0.9500      0.5000      0.9500      0.9000      0.0100           0
SAMGAG          A                   650.0000      0.0000     54.9951    158.6199      1.0000      9.0813      0.9500      0.5000      0.9500      0.9000      0.0100           0
JIGOG           B                  1000.0000      0.0000     99.9243    261.1082      1.0000      0.7894      0.9500      0.5000      0.9500      0.9000      0.0100           0
JIGOG           B                  1000.0000      0.0000     99.9243    261.1082      1.0000      5.2261      0.9500      0.5000      0.9500      0.9000      0.0100           0
HOEGOG          C                  1000.0000      0.0000    128.1888    269.0569      1.0000      3.1318      0.9500      0.5000      0.9500      0.5000      0.0100           0
HOEGOG          C                  1000.0000      0.0000    128.1888    269.0569      1.0000      0.7933      0.9500      0.5000      0.9500      0.5000      0.0100           0
OSAN            B                  1500.0000      0.0000    160.4436    301.6027      1.0000      6.9611      0.9500      0.5000      0.9500      0.9000      0.0100           0
OSAN            B                  1500.0000      0.0000    160.4436    301.6027      1.0000      0.8113      0.9500      0.5000      0.9500      0.9000      0.0100           0
SONGSAN         A                  1200.0000      0.0000    100.5146    285.6958      1.0000      7.5470      0.9500      0.5000      0.9500      0.9000      0.0100           0
SONGSAN         A                  1200.0000      0.0000    100.5146    285.6958      1.0000      0.8683      0.9500      0.5000      0.9500      0.9000      0.0100           0
SAMGAG          A                   650.0000      0.0000     54.9951    158.6199      1.0000      6.7037      0.9500      0.5000      0.9500      0.9000      0.0100           0
JIGOG           B                  1000.0000      0.0000     99.9243    261.1082      1.0000      5.2493      0.9500      0.5000      0.9500      0.9000      0.0100           0
JIGOG           B                  1000.0000      0.0000     99.9243    261.1082      1.0000      0.8651      0.9500      0.5000      0.9500      0.9000      0.0100           0
SONGSAN         A                  1200.0000      0.0000    100.5146    285.6958      1.0000      7.0176      0.9500      0.5000      0.9500      0.9000      0.0100           0
SONGSAN         A                  1200.0000      0.0000    100.5146    285.6958      1.0000      0.8861      0.9500      0.5000      0.9500      0.9000      0.0100           0
HOEGOG          C                  1000.0000      0.0000    128.1888    269.0569      1.0000      4.0830      0.9500      0.5000      0.9500      0.5000      0.0100           0
HOEGOG          C                  1000.0000      0.0000    128.1888    269.0569      1.0000      0.7884      0.9500      0.5000      0.9500      0.5000      0.0100           0
HOEGOG          C                  1000.0000      0.0000    128.1888    269.0569      1.0000      0.2979      0.9500      0.5000      0.9500      0.5000      0.0100           0
OSAN            B                  1500.0000      0.0000    160.4436    301.6027      1.0000      6.5264      0.9500      0.5000      0.9500      0.9000      0.0100           0
OSAN            B                  1500.0000      0.0000    160.4436    301.6027      1.0000      0.7956      0.9500      0.5000      0.9500      0.9000      0.0100           0
PadNAMGYE       B                   380.0000      0.0000     30.9642    133.3507      0.7500      0.1824      0.9500      0.5000      0.9500      0.9000      0.0100           0
PadNAMGYE       B                   380.0000      0.0000     30.9642    133.3507      0.7500      0.7208      0.9500      0.5000      0.9500      0.9000      0.0100           0
PadGACHEON      C                   450.0000      0.0000     41.9583    150.7572      0.7500      0.1941      0.9500      0.5000      0.9500      0.5000      0.0100           0
PadGACHEON      C                   450.0000      0.0000     41.9583    150.7572      0.7500      0.5768      0.9500      0.5000      0.9500      0.5000      0.0100           0
PadMAEGOG       B                   550.0000      0.0000     55.7389    254.1411      0.7500      0.2551      0.9500      0.5000      0.9500      0.9000      0.0100           0
PadMAEGOG       B                   550.0000      0.0000     55.7389    254.1411      0.7500      0.5607      0.9500      0.5000      0.9500      0.9000      0.0100           0
PadSAMGAG       A                   320.0000      0.0000     29.0934     98.0045      0.7500      3.2731      0.9500      0.5000      0.9500      0.9000      0.0100           0
PadSAMGAG       A                   320.0000      0.0000     29.0934     98.0045      0.7500      0.3604      0.9500      0.5000      0.9500      0.9000      0.0100           0
PadSAMGAG       A                   320.0000      0.0000     29.0934     98.0045      0.7500      0.5600      0.9500      0.5000      0.9500      0.9000      0.0100           0
PadJISAN        C                  1000.0000      0.0000    146.6285    431.1784      0.7500      2.0447      0.9500      0.5000      0.9500      0.5000      0.0100           0
PadJISAN        C                  1000.0000      0.0000    146.6285    431.1784      0.7500      0.5405      0.9500      0.5000      0.9500      0.5000      0.0100           0
PadJISAN        C                  1000.0000      0.0000    146.6285    431.1784      0.7500      0.2441      0.9500      0.5000      0.9500      0.5000      0.0100           0
PadHOEGOG       C                   750.0000      0.0000     98.1138    230.3361      0.7500      0.9144      0.9500      0.5000      0.9500      0.5000      0.0100           0
PadHOEGOG       C                   750.0000      0.0000     98.1138    230.3361      0.7500      0.2606      0.9500      0.5000      0.9500      0.5000      0.0100           0
PadHOEGOG       C                   750.0000      0.0000     98.1138    230.3361      0.7500      2.2175      0.9500      0.5000      0.9500      0.5000      0.0100           0
PadJIGOG        B                   750.0000      0.0000     80.9193    215.7874      0.7500      3.2828      0.9500      0.5000      0.9500      0.9000      0.0100           0
PadJIGOG        B                   750.0000      0.0000     80.9193    215.7874      0.7500      0.9210      0.9500      0.5000      0.9500      0.9000      0.0100           0
PadJIGOG        B                   750.0000      0.0000     80.9193    215.7874      0.7500      0.1598      0.9500      0.5000      0.9500      0.9000      0.0100           0
PadYECHEON      D                   450.0000      0.0000     46.4953    165.0731      0.7500      0.6986      0.9500      0.5000      0.9500      0.0500      0.0100           0
PadYECHEON      D                   450.0000      0.0000     46.4953    165.0731      0.7500      0.3271      0.9500      0.5000      0.9500      0.0500      0.0100           0
PadYECHEON      D                   450.0000      0.0000     46.4953    165.0731      0.7500      2.4687      0.9500      0.5000      0.9500      0.0500      0.0100           0
JISAN           C                  1700.0000      0.0000    253.1335    807.3875      1.0000      2.2521      0.9500      0.5000      0.9500      0.5000      0.0100           0
JISAN           C                  1700.0000      0.0000    253.1335    807.3875      1.0000      0.6671      0.9500      0.5000      0.9500      0.5000      0.0100           0
JISAN           C                  1700.0000      0.0000    253.1335    807.3875      1.0000      0.2263      0.9500      0.5000      0.9500      0.5000      0.0100           0
SAMGAG          A                   650.0000      0.0000     54.9951    158.6199      1.0000      0.6637      0.9500      0.5000      0.9500      0.9000      0.0100           0
SAMGAG          A                   650.0000      0.0000     54.9951    158.6199      1.0000      5.2582      0.9500      0.5000      0.9500      0.9000      0.0100           0
SAMGAG          A                   650.0000      0.0000     54.9951    158.6199      1.0000      0.1567      0.9500      0.5000      0.9500      0.9000      0.0100           0
JIGOG           B                  1000.0000      0.0000     99.9243    261.1082      1.0000      0.3631      0.9500      0.5000      0.9500      0.9000      0.0100           0
JIGOG           B                  1000.0000      0.0000     99.9243    261.1082      1.0000      2.8442      0.9500      0.5000      0.9500      0.9000      0.0100           0
JIGOG           B                  1000.0000      0.0000     99.9243    261.1082      1.0000      0.8620      0.9500      0.5000      0.9500      0.9000      0.0100           0
HOEGOG          C                  1000.0000      0.0000    128.1888    269.0569      1.0000      3.0700      0.9500      0.5000      0.9500      0.5000      0.0100           0
HOEGOG          C                  1000.0000      0.0000    128.1888    269.0569      1.0000      0.7497      0.9500      0.5000      0.9500      0.5000      0.0100           0
HOEGOG          C                  1000.0000      0.0000    128.1888    269.0569      1.0000      0.2075      0.9500      0.5000      0.9500      0.5000      0.0100           0
OSAN            B                  1500.0000      0.0000    160.4436    301.6027      1.0000      4.0960      0.9500      0.5000      0.9500      0.9000      0.0100           0
OSAN            B                  1500.0000      0.0000    160.4436    301.6027      1.0000      0.9134      0.9500      0.5000      0.9500      0.9000      0.0100           0
SONGSAN         A                  1200.0000      0.0000    100.5146    285.6958      1.0000      3.5864      0.9500      0.5000      0.9500      0.9000      0.0100           0
SONGSAN         A                  1200.0000      0.0000    100.5146    285.6958      1.0000      0.9075      0.9500      0.5000      0.9500      0.9000      0.0100           0
Etc             D                  1000.0000      0.0000    198.4916    450.0210      1.0000      0.1492      0.9500      0.5000      0.9500      0.0500      0.0100           0
Etc             D                  1000.0000      0.0000    198.4916    450.0210      1.0000      0.5882      0.9500      0.5000      0.9500      0.0500      0.0100           0
NAMGYE          B                  1000.0000      0.0000     56.6880    258.6422      1.0000      0.1989      0.9500      0.5000      0.9500      0.9000      0.0100           0
NAMGYE          B                  1000.0000      0.0000     56.6880    258.6422      1.0000      0.6020      0.9500      0.5000      0.9500      0.9000      0.0100           0
HWANGRYONG      A                  1500.0000      0.0000     65.6958    475.5820      1.0000      0.3424      0.9500      0.5000      0.9500      0.9000      0.0100           0
MAEGOG          B                   800.0000      0.0000     75.6414    291.8618      1.0000      0.1351      0.9500      0.5000      0.9500      0.9000      0.0100           0
GACHEON         C                  1000.0000      0.0000     72.1696    268.2789      1.0000      0.1685      0.9500      0.5000      0.9500      0.5000      0.0100           0
HOEGOG          C                  1000.0000      0.0000    128.1888    269.0569      1.0000      0.1102      0.9500      0.5000      0.9500      0.5000      0.0100           0
NAMGYE          B                  1000.0000      0.0000     56.6880    258.6422      0.7500      0.2647      0.9500      0.5000      0.9500      0.9000      0.0100           0
NAMGYE          B                  1000.0000      0.0000     56.6880    258.6422      0.7500      0.6168      0.9500      0.5000      0.9500      0.9000      0.0100           0
GACHEON         C                  1000.0000      0.0000     72.1696    268.2789      0.7500      0.2335      0.9500      0.5000      0.9500      0.5000      0.0100           0
HOEGOG          C                  1000.0000      0.0000    128.1888    269.0569      0.7500      0.2208      0.9500      0.5000      0.9500      0.5000      0.0100           0
HOEGOG          C                  1000.0000      0.0000    128.1888    269.0569      0.7500      0.9333      0.9500      0.5000      0.9500      0.5000      0.0100           0
JIGOG           B                  1000.0000      0.0000     99.9243    261.1082      0.7500      0.7448      0.9500      0.5000      0.9500      0.9000      0.0100           0
JIGOG           B                  1000.0000      0.0000     99.9243    261.1082      0.7500      0.0650      0.9500      0.5000      0.9500      0.9000      0.0100           0
Etc             D                  1000.0000      0.0000    198.4916    450.0210      0.7500      0.1663      0.9500      0.5000      0.9500      0.0500      0.0100           0
Etc             D                  1000.0000      0.0000    198.4916    450.0210      0.7500      0.9656      0.9500      0.5000      0.9500      0.0500      0.0100           0
JISAN           C                  1700.0000      0.0000    253.1335    807.3875      0.7500      0.1260      0.9500      0.5000      0.9500      0.5000      0.0100           0
CHILGOG         B                   630.0000      0.0000     80.5840    291.9000      0.7500      0.6101      0.9500      0.5000      0.9500      0.9000      0.0100           0
SEOGTO          B                   800.0000      0.0000    140.7557    263.8835      0.7500      0.8805      0.9500      0.5000      0.9500      0.9000      0.0100           0
UGOG            B                  1200.0000      0.0000    167.1300    453.7225      0.7500      0.6912      0.9500      0.5000      0.9500      0.9000      0.0100           0
UGOG            B                  1200.0000      0.0000    167.1300    453.7225      0.7500      0.0650      0.9500      0.5000      0.9500      0.9000      0.0100           0
IMGOG           D                  1200.0000      0.0000    154.2010    601.0446      0.7500      0.1240      0.9500      0.5000      0.9500      0.0500      0.0100           0
PadMAEGOG       B                   550.0000      0.0000     55.7389    254.1411      0.7500      0.2115      0.9500      0.5000      0.9500      0.9000      0.0100           0
PadMAEGOG       B                   550.0000      0.0000     55.7389    254.1411      0.7500      0.5627      0.9500      0.5000      0.9500      0.9000      0.0100           0
PadNAMGYE       B                   380.0000      0.0000     30.9642    133.3507      0.7500      0.1395      0.9500      0.5000      0.9500      0.9000      0.0100           0
PadGACHEON      C                   450.0000      0.0000     41.9583    150.7572      0.7500      0.1310      0.9500      0.5000      0.9500      0.5000      0.0100           0
PadGACHEON      C                   450.0000      0.0000     41.9583    150.7572      0.7500      0.8229      0.9500      0.5000      0.9500      0.5000      0.0100           0
Etc             D                  1000.0000      0.0000    198.4916    450.0210      0.7500      0.1662      0.9500      0.5000      0.9500      0.0500      0.0100           0
Etc             D                  1000.0000      0.0000    198.4916    450.0210      0.7500      0.5717      0.9500      0.5000      0.9500      0.0500      0.0100           0
PadJIGOG        B                   750.0000      0.0000     80.9193    215.7874      0.7500      0.3110      0.9500      0.5000      0.9500      0.9000      0.0100           0
PadJIGOG        B                   750.0000      0.0000     80.9193    215.7874      0.7500      0.5620      0.9500      0.5000      0.9500      0.9000      0.0100           0
PadHOEGOG       C                   750.0000      0.0000     98.1138    230.3361      0.7500      0.5875      0.9500      0.5000      0.9500      0.5000      0.0100           0
PadHOEGOG       C                   750.0000      0.0000     98.1138    230.3361      0.7500      0.1519      0.9500      0.5000      0.9500      0.5000      0.0100           0
MAEGOG          B                   800.0000      0.0000     75.6414    291.8618      1.0000      0.1885      0.9500      0.5000      0.9500      0.9000      0.0100           0
HWANGRYONG      A                  1500.0000      0.0000     65.6958    475.5820      1.0000      0.4530      0.9500      0.5000      0.9500      0.9000      0.0100           0
HWANGRYONG      A                  1500.0000      0.0000     65.6958    475.5820      1.0000      0.7296      0.9500      0.5000      0.9500      0.9000      0.0100           0
GACHEON         C                  1000.0000      0.0000     72.1696    268.2789      1.0000      0.2791      0.9500      0.5000      0.9500      0.5000      0.0100           0
GACHEON         C                  1000.0000      0.0000     72.1696    268.2789      1.0000      0.5663      0.9500      0.5000      0.9500      0.5000      0.0100           0
Etc             D                  1000.0000      0.0000    198.4916    450.0210      1.0000      0.1237      0.9500      0.5000      0.9500      0.0500      0.0100           0
CHILGOG         B                   630.0000      0.0000     80.5840    291.9000      1.0000      0.3372      0.9500      0.5000      0.9500      0.9000      0.0100           0
CHILGOG         B                   630.0000      0.0000     80.5840    291.9000      1.0000      0.5615      0.9500      0.5000      0.9500      0.9000      0.0100           0
SAMGAG          A                   650.0000      0.0000     54.9951    158.6199      1.0000      0.8156      0.9500      0.5000      0.9500      0.9000      0.0100           0
Etc             D                  1000.0000      0.0000    198.4916    450.0210      1.0000      0.1473      0.9500      0.5000      0.9500      0.0500      0.0100           0
Etc             D                  1000.0000      0.0000    198.4916    450.0210      1.0000      0.5547      0.9500      0.5000      0.9500      0.0500      0.0100           0
NAMGYE          B                  1000.0000      0.0000     56.6880    258.6422      1.0000      0.1461      0.9500      0.5000      0.9500      0.9000      0.0100           0
HOEGOG          C                  1000.0000      0.0000    128.1888    269.0569      1.0000      0.1538      0.9500      0.5000      0.9500      0.5000      0.0100           0
HOEGOG          C                  1000.0000      0.0000    128.1888    269.0569      1.0000      1.3025      0.9500      0.5000      0.9500      0.5000      0.0100           0
JIGOG           B                  1000.0000      0.0000     99.9243    261.1082      1.0000      0.4075      0.9500      0.5000      0.9500      0.9000      0.0100           0
Etc             D                  1000.0000      0.0000    198.4916    450.0210      1.0000      0.2552      0.9500      0.5000      0.9500      0.0500      0.0100           0
Etc             D                  1000.0000      0.0000    198.4916    450.0210      1.0000      0.6773      0.9500      0.5000      0.9500      0.0500      0.0100           0
JIGOG           B                  1000.0000      0.0000     99.9243    261.1082      1.0000      0.7004      0.9500      0.5000      0.9500      0.9000      0.0100           0
SAMGAG          A                   650.0000      0.0000     54.9951    158.6199      1.0000      0.5707      0.9500      0.5000      0.9500      0.9000      0.0100           0
SAMGAG          A                   650.0000      0.0000     54.9951    158.6199      1.0000      0.1089      0.9500      0.5000      0.9500      0.9000      0.0100           0
GACHEON         C                  1000.0000      0.0000     72.1696    268.2789      1.0000      0.7386      0.9500      0.5000      0.9500      0.5000      0.0100           0
GACHEON         C                  1000.0000      0.0000     72.1696    268.2789      1.0000      0.2907      0.9500      0.5000      0.9500      0.5000      0.0100           0
Etc             D                  1000.0000      0.0000    198.4916    450.0210      1.0000      0.8366      0.9500      0.5000      0.9500      0.0500      0.0100           0
Etc             D                  1000.0000      0.0000    198.4916    450.0210      1.0000      0.4904      0.9500      0.5000      0.9500      0.0500      0.0100           0
HOEGOG          C                  1000.0000      0.0000    128.1888    269.0569      1.0000      0.4225      0.9500      0.5000      0.9500      0.5000      0.0100           0
OSAN            B                  1500.0000      0.0000    160.4436    301.6027      1.0000      4.6473      0.9500      0.5000      0.9500      0.9000      0.0100           0
OSAN            B                  1500.0000      0.0000    160.4436    301.6027      1.0000      0.3859      0.9500      0.5000      0.9500      0.9000      0.0100           0
OSAN            B                  1500.0000      0.0000    160.4436    301.6027      1.0000      0.9137      0.9500      0.5000      0.9500      0.9000      0.0100           0
Etc             D                  1000.0000      0.0000    198.4916    450.0210      1.0000      0.1434      0.9500      0.5000      0.9500      0.0500      0.0100           0
Etc             D                  1000.0000      0.0000    198.4916    450.0210      1.0000      0.8234      0.9500      0.5000      0.9500      0.0500      0.0100           0
GACHEON         C                  1000.0000      0.0000     72.1696    268.2789      1.0000      0.4813      0.9500      0.5000      0.9500      0.5000      0.0100           0
NAMGYE          B                  1000.0000      0.0000     56.6880    258.6422      1.0000      0.4128      0.9500      0.5000      0.9500      0.9000      0.0100           0
NAMGYE          B                  1000.0000      0.0000     56.6880    258.6422      1.0000      0.5456      0.9500      0.5000      0.9500      0.9000      0.0100           0
MAEGOG          B                   800.0000      0.0000     75.6414    291.8618      1.0000      0.7532      0.9500      0.5000      0.9500      0.9000      0.0100           0
MAEGOG          B                   800.0000      0.0000     75.6414    291.8618      1.0000      0.2238      0.9500      0.5000      0.9500      0.9000      0.0100           0
SAMGAG          A                   650.0000      0.0000     54.9951    158.6199      1.0000      9.8033      0.9500      0.5000      0.9500      0.9000      0.0100           0
JIGOG           B                  1000.0000      0.0000     99.9243    261.1082      1.0000      7.0289      0.9500      0.5000      0.9500      0.9000      0.0100           0
JIGOG           B                  1000.0000      0.0000     99.9243    261.1082      1.0000      0.9196      0.9500      0.5000      0.9500      0.9000      0.0100           0
JIGOG           B                  1000.0000      0.0000     99.9243    261.1082      1.0000      0.3055      0.9500      0.5000      0.9500      0.9000      0.0100           0
OSAN            B                  1500.0000      0.0000    160.4436    301.6027      1.0000      6.9965      0.9500      0.5000      0.9500      0.9000      0.0100           0
OSAN            B                  1500.0000      0.0000    160.4436    301.6027      1.0000      0.8943      0.9500      0.5000      0.9500      0.9000      0.0100           0
SONGSAN         A                  1200.0000      0.0000    100.5146    285.6958      1.0000     11.0483      0.9500      0.5000      0.9500      0.9000      0.0100           0
SUAM            B                  1200.0000      0.0000     93.4600    378.2960      1.0000     10.5107      0.9500      0.5000      0.9500      0.9000      0.0100           0
SUAM            B                  1200.0000      0.0000     93.4600    378.2960      1.0000      0.6383      0.9500      0.5000      0.9500      0.9000      0.0100           0
SAMGAG          A                   650.0000      0.0000     54.9951    158.6199      1.0000      9.2811      0.9500      0.5000      0.9500      0.9000      0.0100           0
SAMGAG          A                   650.0000      0.0000     54.9951    158.6199      1.0000      0.8140      0.9500      0.5000      0.9500      0.9000      0.0100           0
HOEGOG          C                  1000.0000      0.0000    128.1888    269.0569      1.0000      3.4808      0.9500      0.5000      0.9500      0.5000      0.0100           0
HOEGOG          C                  1000.0000      0.0000    128.1888    269.0569      1.0000      0.7205      0.9500      0.5000      0.9500      0.5000      0.0100           0
HOEGOG          C                  1000.0000      0.0000    128.1888    269.0569      1.0000      0.2482      0.9500      0.5000      0.9500      0.5000      0.0100           0
JIGOG           B                  1000.0000      0.0000     99.9243    261.1082      1.0000      5.4170      0.9500      0.5000      0.9500      0.9000      0.0100           0
JIGOG           B                  1000.0000      0.0000     99.9243    261.1082      1.0000      0.8769      0.9500      0.5000      0.9500      0.9000      0.0100           0
OSAN            B                  1500.0000      0.0000    160.4436    301.6027      1.0000      5.8718      0.9500      0.5000      0.9500      0.9000      0.0100           0
OSAN            B                  1500.0000      0.0000    160.4436    301.6027      1.0000      0.9805      0.9500      0.5000      0.9500      0.9000      0.0100           0
MAEGOG          B                   800.0000      0.0000     75.6414    291.8618      1.0000      2.9531      0.9500      0.5000      0.9500      0.9000      0.0100           0
MAEGOG          B                   800.0000      0.0000     75.6414    291.8618      1.0000      0.1954      0.9500      0.5000      0.9500      0.9000      0.0100           0
MAEGOG          B                   800.0000      0.0000     75.6414    291.8618      1.0000      0.7043      0.9500      0.5000      0.9500      0.9000      0.0100           0
SONGSAN         A                  1200.0000      0.0000    100.5146    285.6958      1.0000      9.3790      0.9500      0.5000      0.9500      0.9000      0.0100           0
SUAM            B                  1200.0000      0.0000     93.4600    378.2960      1.0000      0.5703      0.9500      0.5000      0.9500      0.9000      0.0100           0
[...]
YESAN           B                  1300.0000      0.0000    138.0230    335.9058      0.7500      0.4185      0.9500      0.5000      0.9500      0.9000      0.0100           0
SANGJU          B                  1500.0000      0.0000    129.8630    334.0098      0.7500      0.5794      0.9500      0.5000      0.9500      0.9000      0.0100           0
SANGJU          B                  1500.0000      0.0000    129.8630    334.0098      0.7500      0.1760      0.9500      0.5000      0.9500      0.9000      0.0100           0
SANGJU          B                  1500.0000      0.0000    129.8630    334.0098      0.7500      2.7327      0.9500      0.5000      0.9500      0.9000      0.0100           0
NOEGOG          B                  1100.0000      0.0000     98.0292    255.8197      0.7500      0.5688      0.9500      0.5000      0.9500      0.9000      0.0100           0
NOEGOG          B                  1100.0000      0.0000     98.0292    255.8197      0.7500      0.3238      0.9500      0.5000      0.9500      0.9000      0.0100           0
NOEGOG          B                  1100.0000      0.0000     98.0292    255.8197      0.7500      1.8674      0.9500      0.5000      0.9500      0.9000      0.0100           0
ANRYONG         B                   900.0000      0.0000    109.3640    221.8517      0.7500      1.9409      0.9500      0.5000      0.9500      0.9000      0.0100           0
ANRYONG         B                   900.0000      0.0000    109.3640    221.8517      0.7500      0.9019      0.9500      0.5000      0.9500      0.9000      0.0100           0
ANRYONG         B                   900.0000      0.0000    109.3640    221.8517      0.7500      0.2183      0.9500      0.5000      0.9500      0.9000      0.0100           0
PadSACHON       C                   660.0000      0.0000     87.1626    326.8337      0.7500      0.1801      0.9500      0.5000      0.9500      0.5000      0.0100           0
PadSACHON       C                   660.0000      0.0000     87.1626    326.8337      0.7500      0.7969      0.9500      0.5000      0.9500      0.5000      0.0100           0
PadSEOGCHEON    C                  1200.0000      0.0000    155.7798    425.9252      0.7500      0.1486      0.9500      0.5000      0.9500      0.5000      0.0100           0
PadSEOGCHEON    C                  1200.0000      0.0000    155.7798    425.9252      0.7500      0.5654      0.9500      0.5000      0.9500      0.5000      0.0100           0
PadJUNGDONG     B                  1000.0000      0.0000     93.1510    266.9996      0.7500      0.1329      0.9500      0.5000      0.9500      0.9000      0.0100           0
PadJUNGDONG     B                  1000.0000      0.0000     93.1510    266.9996      0.7500      0.7618      0.9500      0.5000      0.9500      0.9000      0.0100           0
PadGANGSEO      B                   780.0000      0.0000     94.6420    291.5947      0.7500      0.1141      0.9500      0.5000      0.9500      0.9000      0.0100           0
PadGANGSEO      B                   780.0000      0.0000     94.6420    291.5947      0.7500      0.6072      0.9500      0.5000      0.9500      0.9000      0.0100           0
PadSAMGAG       A                   320.0000      0.0000     29.0934     98.0045      0.7500      0.6673      0.9500      0.5000      0.9500      0.9000      0.0100           0
PadSAMGAG       A                   320.0000      0.0000     29.0934     98.0045      0.7500      0.2174      0.9500      0.5000      0.9500      0.9000      0.0100           0
PadSAMGAG       A                   320.0000      0.0000     29.0934     98.0045      0.7500      2.7105      0.9500      0.5000      0.9500      0.9000      0.0100           0
PadHAMCHANG     D                  1000.0000      0.0000    149.8765    352.8340      0.7500      0.1953      0.9500      0.5000      0.9500      0.0500      0.0100           0
PadHAMCHANG     D                  1000.0000      0.0000    149.8765    352.8340      0.7500      0.7774      0.9500      0.5000      0.9500      0.0500      0.0100           0
PadMAEGOG       B                   550.0000      0.0000     55.7389    254.1411      0.7500      0.6416      0.9500      0.5000      0.9500      0.9000      0.0100           0
PadMAEGOG       B                   550.0000      0.0000     55.7389    254.1411      0.7500      0.1421      0.9500      0.5000      0.9500      0.9000      0.0100           0
PadNOEGOG       B                   550.0000      0.0000     42.0067    173.2189      0.7500      0.9008      0.9500      0.5000      0.9500      0.9000      0.0100           0
PadNOEGOG       B                   550.0000      0.0000     42.0067    173.2189      0.7500      0.1819      0.9500      0.5000      0.9500      0.9000      0.0100           0
SAMGAG          A                   650.0000      0.0000     54.9951    158.6199      1.0000      0.8605      0.9500      0.5000      0.9500      0.9000      0.0100           0
SAMGAG          A                   650.0000      0.0000     54.9951    158.6199      1.0000      2.9074      0.9500      0.5000      0.9500      0.9000      0.0100           0
SAMGAG          A                   650.0000      0.0000     54.9951    158.6199      1.0000      0.2892      0.9500      0.5000      0.9500      0.9000      0.0100           0
SEOGCHEON       C                  1200.0000      0.0000    155.7798    425.9252      1.0000      0.5750      0.9500      0.5000      0.9500      0.5000      0.0100           0
SEOGCHEON       C                  1200.0000      0.0000    155.7798    425.9252      1.0000      0.1514      0.9500      0.5000      0.9500      0.5000      0.0100           0
SACHON          C                  1300.0000      0.0000    160.2058    687.9483      1.0000      1.6477      0.9500      0.5000      0.9500      0.5000      0.0100           0
SACHON          C                  1300.0000      0.0000    160.2058    687.9483      1.0000      0.3868      0.9500      0.5000      0.9500      0.5000      0.0100           0
SACHON          C                  1300.0000      0.0000    160.2058    687.9483      1.0000      0.5451      0.9500      0.5000      0.9500      0.5000      0.0100           0
YESAN           B                  1300.0000      0.0000    138.0230    335.9058      1.0000      4.0211      0.9500      0.5000      0.9500      0.9000      0.0100           0
YESAN           B                  1300.0000      0.0000    138.0230    335.9058      1.0000      0.7767      0.9500      0.5000      0.9500      0.9000      0.0100           0
GANGSEO         B                  1300.0000      0.0000    129.6684    401.9899      1.0000      0.6794      0.9500      0.5000      0.9500      0.9000      0.0100           0
GANGSEO         B                  1300.0000      0.0000    129.6684    401.9899      1.0000      1.4685      0.9500      0.5000      0.9500      0.9000      0.0100           0
GANGSEO         B                  1300.0000      0.0000    129.6684    401.9899      1.0000      0.1395      0.9500      0.5000      0.9500      0.9000      0.0100           0
SANGJU          B                  1500.0000      0.0000    129.8630    334.0098      1.0000      2.8980      0.9500      0.5000      0.9500      0.9000      0.0100           0
SANGJU          B                  1500.0000      0.0000    129.8630    334.0098      1.0000      0.7639      0.9500      0.5000      0.9500      0.9000      0.0100           0
JUNGDONG        B                  2000.0000      0.0000    204.5990    469.2427      1.0000      1.6518      0.9500      0.5000      0.9500      0.9000      0.0100           0
JUNGDONG        B                  2000.0000      0.0000    204.5990    469.2427      1.0000      0.0826      0.9500      0.5000      0.9500      0.9000      0.0100           0
MAEGOG          B                   800.0000      0.0000     75.6414    291.8618      1.0000      0.7646      0.9500      0.5000      0.9500      0.9000      0.0100           0
MAEGOG          B                   800.0000      0.0000     75.6414    291.8618      1.0000      0.1899      0.9500      0.5000      0.9500      0.9000      0.0100           0
SEOGTO          B                   800.0000      0.0000    140.7557    263.8835      1.0000      0.7470      0.9500      0.5000      0.9500      0.9000      0.0100           0
SEOGTO          B                   800.0000      0.0000    140.7557    263.8835      1.0000      2.3465      0.9500      0.5000      0.9500      0.9000      0.0100           0
HOEGOG          C                  1000.0000      0.0000    128.1888    269.0569      1.0000      0.8345      0.9500      0.5000      0.9500      0.5000      0.0100           0
HOEGOG          C                  1000.0000      0.0000    128.1888    269.0569      1.0000      2.4123      0.9500      0.5000      0.9500      0.5000      0.0100           0
ANRYONG         B                   900.0000      0.0000    109.3640    221.8517      1.0000      2.3026      0.9500      0.5000      0.9500      0.9000      0.0100           0
JIGOG           B                  1000.0000      0.0000     99.9243    261.1082      0.7500      0.5535      0.9500      0.5000      0.9500      0.9000      0.0100           0
JIGOG           B                  1000.0000      0.0000     99.9243    261.1082      0.7500      0.4132      0.9500      0.5000      0.9500      0.9000      0.0100           0
SACHON          C                  1300.0000      0.0000    160.2058    687.9483      0.7500      0.4089      0.9500      0.5000      0.9500      0.5000      0.0100           0
SACHON          C                  1300.0000      0.0000    160.2058    687.9483      0.7500      0.9072      0.9500      0.5000      0.9500      0.5000      0.0100           0
SAMGAG          A                   650.0000      0.0000     54.9951    158.6199      0.7500      0.4222      0.9500      0.5000      0.9500      0.9000      0.0100           0
SAMGAG          A                   650.0000      0.0000     54.9951    158.6199      0.7500      1.7623      0.9500      0.5000      0.9500      0.9000      0.0100           0
SAMGAG          A                   650.0000      0.0000     54.9951    158.6199      0.7500      0.8256      0.9500      0.5000      0.9500      0.9000      0.0100           0
JUNGDONG        B                  2000.0000      0.0000    204.5990    469.2427      0.7500      0.1688      0.9500      0.5000      0.9500      0.9000      0.0100           0
SEOGCHEON       C                  1200.0000      0.0000    155.7798    425.9252      0.7500      0.2090      0.9500      0.5000      0.9500      0.5000      0.0100           0
SEOGCHEON       C                  1200.0000      0.0000    155.7798    425.9252      0.7500      0.6311      0.9500      0.5000      0.9500      0.5000      0.0100           0
YESAN           B                  1300.0000      0.0000    138.0230    335.9058      0.7500      0.8484      0.9500      0.5000      0.9500      0.9000      0.0100           0
YESAN           B                  1300.0000      0.0000    138.0230    335.9058      0.7500      0.4497      0.9500      0.5000      0.9500      0.9000      0.0100           0
SANGJU          B                  1500.0000      0.0000    129.8630    334.0098      0.7500      0.6824      0.9500      0.5000      0.9500      0.9000      0.0100           0
SANGJU          B                  1500.0000      0.0000    129.8630    334.0098      0.7500      0.0901      0.9500      0.5000      0.9500      0.9000      0.0100           0
NOEGOG          B                  1100.0000      0.0000     98.0292    255.8197      0.7500      0.8803      0.9500      0.5000      0.9500      0.9000      0.0100           0
JUNGDONG        B                  2000.0000      0.0000    204.5990    469.2427      1.0000      0.1143      0.9500      0.5000      0.9500      0.9000      0.0100           0
GANGSEO         B                  1300.0000      0.0000    129.6684    401.9899      1.0000      0.0686      0.9500      0.5000      0.9500      0.9000      0.0100           0
GANGSEO         B                  1300.0000      0.0000    129.6684    401.9899      1.0000      0.6135      0.9500      0.5000      0.9500      0.9000      0.0100           0
YESAN           B                  1300.0000      0.0000    138.0230    335.9058      1.0000      2.3480      0.9500      0.5000      0.9500      0.9000      0.0100           0
YESAN           B                  1300.0000      0.0000    138.0230    335.9058      1.0000      0.9283      0.9500      0.5000      0.9500      0.9000      0.0100           0
YESAN           B                  1300.0000      0.0000    138.0230    335.9058      1.0000      0.4244      0.9500      0.5000      0.9500      0.9000      0.0100           0
SACHON          C                  1300.0000      0.0000    160.2058    687.9483      1.0000      0.4128      0.9500      0.5000      0.9500      0.5000      0.0100           0
SACHON          C                  1300.0000      0.0000    160.2058    687.9483      1.0000      0.9635      0.9500      0.5000      0.9500      0.5000      0.0100           0
SANGJU          B                  1500.0000      0.0000    129.8630    334.0098      1.0000      0.5933      0.9500      0.5000      0.9500      0.9000      0.0100           0
SANGJU          B                  1500.0000      0.0000    129.8630    334.0098      1.0000      0.3923      0.9500      0.5000      0.9500      0.9000      0.0100           0
SEOGCHEON       C                  1200.0000      0.0000    155.7798    425.9252      1.0000      0.1715      0.9500      0.5000      0.9500      0.5000      0.0100           0
JUNGDONG        B                  2000.0000      0.0000    204.5990    469.2427      0.7500      0.3159      0.9500      0.5000      0.9500      0.9000      0.0100           0
JUNGDONG        B                  2000.0000      0.0000    204.5990    469.2427      0.7500      0.7221      0.9500      0.5000      0.9500      0.9000      0.0100           0
SEOGCHEON       C                  1200.0000      0.0000    155.7798    425.9252      0.7500      0.1821      0.9500      0.5000      0.9500      0.5000      0.0100           0
SEOGCHEON       C                  1200.0000      0.0000    155.7798    425.9252      0.7500      0.5440      0.9500      0.5000      0.9500      0.5000      0.0100           0
SAMGAG          A                   650.0000      0.0000     54.9951    158.6199      0.7500      0.4199      0.9500      0.5000      0.9500      0.9000      0.0100           0
Etc             D                  1000.0000      0.0000    198.4916    450.0210      0.7500      0.1160      0.9500      0.5000      0.9500      0.0500      0.0100           0
Etc             D                  1000.0000      0.0000    198.4916    450.0210      1.0000      0.0812      0.9500      0.5000      0.9500      0.0500      0.0100           0
Etc             D                  1000.0000      0.0000    198.4916    450.0210      1.0000      0.5521      0.9500      0.5000      0.9500      0.0500      0.0100           0
JUNGDONG        B                  2000.0000      0.0000    204.5990    469.2427      1.0000      0.1281      0.9500      0.5000      0.9500      0.9000      0.0100           0
JUNGDONG        B                  2000.0000      0.0000    204.5990    469.2427      1.0000      0.6978      0.9500      0.5000      0.9500      0.9000      0.0100           0
GANGSEO         B                  1300.0000      0.0000    129.6684    401.9899      1.0000      0.1560      0.9500      0.5000      0.9500      0.9000      0.0100           0
SEOGCHEON       C                  1200.0000      0.0000    155.7798    425.9252      1.0000      0.1054      0.9500      0.5000      0.9500      0.5000      0.0100           0
HWANGRYONG      A                  1500.0000      0.0000     65.6958    475.5820      1.0000      0.1235      0.9500      0.5000      0.9500      0.9000      0.0100           0
HWANGRYONG      A                  1500.0000      0.0000     65.6958    475.5820      1.0000      0.6983      0.9500      0.5000      0.9500      0.9000      0.0100           0
Etc             D                  1000.0000      0.0000    198.4916    450.0210      1.0000      0.0790      0.9500      0.5000      0.9500      0.0500      0.0100           0
Etc             D                  1000.0000      0.0000    198.4916    450.0210      1.0000      0.6884      0.9500      0.5000      0.9500      0.0500      0.0100           0
GANGSEO         B                  1300.0000      0.0000    129.6684    401.9899      1.0000      0.0667      0.9500      0.5000      0.9500      0.9000      0.0100           0
HWANGRYONG      A                  1500.0000      0.0000     65.6958    475.5820      1.0000      0.1961      0.9500      0.5000      0.9500      0.9000      0.0100           0
HWANGRYONG      A                  1500.0000      0.0000     65.6958    475.5820      1.0000      0.8886      0.9500      0.5000      0.9500      0.9000      0.0100           0
JUNGDONG        B                  2000.0000      0.0000    204.5990    469.2427      1.0000      0.1848      0.9500      0.5000      0.9500      0.9000      0.0100           0
JUNGDONG        B                  2000.0000      0.0000    204.5990    469.2427      1.0000      0.5824      0.9500      0.5000      0.9500      0.9000      0.0100           0
Etc             D                  1000.0000      0.0000    198.4916    450.0210      1.0000      0.0814      0.9500      0.5000      0.9500      0.0500      0.0100           0
HWANGRYONG      A                  1500.0000      0.0000     65.6958    475.5820      1.0000      0.7626      0.9500      0.5000      0.9500      0.9000      0.0100           0
SEOGCHEON       C                  1200.0000      0.0000    155.7798    425.9252      1.0000      1.2904      0.9500      0.5000      0.9500      0.5000      0.0100           0
SEOGCHEON       C                  1200.0000      0.0000    155.7798    425.9252      1.0000      0.1520      0.9500      0.5000      0.9500      0.5000      0.0100           0
GANGSEO         B                  1300.0000      0.0000    129.6684    401.9899      1.0000      0.0650      0.9500      0.5000      0.9500      0.9000      0.0100           0
PadJUNGDONG     B                  1000.0000      0.0000     93.1510    266.9996      0.7500      0.2029      0.9500      0.5000      0.9500      0.9000      0.0100           0
PadJUNGDONG     B                  1000.0000      0.0000     93.1510    266.9996      0.7500      0.7251      0.9500      0.5000      0.9500      0.9000      0.0100           0
PadGANGSEO      B                   780.0000      0.0000     94.6420    291.5947      0.7500      0.1228      0.9500      0.5000      0.9500      0.9000      0.0100           0
PadGANGSEO      B                   780.0000      0.0000     94.6420    291.5947      0.7500      0.5757      0.9500      0.5000      0.9500      0.9000      0.0100           0
Etc             D                  1000.0000      0.0000    198.4916    450.0210      0.7500      0.1079      0.9500      0.5000      0.9500      0.0500      0.0100           0
Etc             D                  1000.0000      0.0000    198.4916    450.0210      0.7500      0.6435      0.9500      0.5000      0.9500      0.0500      0.0100           0
PadSEOGCHEON    C                  1200.0000      0.0000    155.7798    425.9252      0.7500      0.1586      0.9500      0.5000      0.9500      0.5000      0.0100           0
PadSEOGCHEON    C                  1200.0000      0.0000    155.7798    425.9252      0.7500      0.5543      0.9500      0.5000      0.9500      0.5000      0.0100           0
PadHWANGRYONG   A                   300.0000      0.0000     14.8998     93.2348      0.7500      0.2194      0.9500      0.5000      0.9500      0.9000      0.0100           0
