 april24                   SWAT+ Apr 12 2023       MODULAR Rev 2023.60.5.6                                
                                        zmx       usle_k       sumfc       sumul      usle_p     usle_ls        esco        epco     cn3_swf       perco     latq_co   tiledrain 
 sname           hydgrp                 (mm)                    (mm)        (mm)                                                                                     0=notile;1=tile;
aqxe            D                  1000.0000      0.0000    292.0000    372.6040      1.0000      0.1294      0.9500      0.5000      0.9500      0.0500      0.0100           0
aqxe            D                  1000.0000      0.0000    292.0000    372.6040      0.1200      0.0658      0.9500      0.5000      0.9500      0.0500      0.0100           0
aqxe            D                  1000.0000      0.0000    292.0000    372.6040      1.0000      0.1964      0.9500      0.5000      0.9500      0.0500      0.0100           0
aqxe            D                  1000.0000      0.0000    292.0000    372.6040      0.1200      0.0678      0.9500      0.5000      0.9500      0.0500      0.0100           0
aqxe            D                  1000.0000      0.0000    292.0000    372.6040      1.0000      0.0962      0.9500      0.5000      0.9500      0.0500      0.0100           0
aqxe            D                  1000.0000      0.0000    292.0000    372.6040      0.1200      0.0663      0.9500      0.5000      0.9500      0.0500      0.0100           0
aqxe            D                  1000.0000      0.0000    292.0000    372.6040      0.1200      0.0700      0.9500      0.5000      0.9500      0.0500      0.0100           0
aqxe            D                  1000.0000      0.0000    292.0000    372.6040      1.0000      0.1079      0.9500      0.5000      0.9500      0.0500      0.0100           0
aqxe            D                  1000.0000      0.0000    292.0000    372.6040      1.0000      0.1421      0.9500      0.5000      0.9500      0.0500      0.0100           0
aqxe            D                  1000.0000      0.0000    292.0000    372.6040      1.0000      0.1823      0.9500      0.5000      0.9500      0.0500      0.0100           0
aqxe            D                  1000.0000      0.0000    292.0000    372.6040      1.0000      0.0676      0.9500      0.5000      0.9500      0.0500      0.0100           0
aqxe            D                  1000.0000      0.0000    292.0000    372.6040      0.1200      0.0703      0.9500      0.5000      0.9500      0.0500      0.0100           0
aqxe            D                  1000.0000      0.0000    292.0000    372.6040      1.0000      0.0895      0.9500      0.5000      0.9500      0.0500      0.0100           0
aqxe            D                  1000.0000      0.0000    292.0000    372.6040      0.1200      0.0702      0.9500      0.5000      0.9500      0.0500      0.0100           0
aqxe            D                  1000.0000      0.0000    292.0000    372.6040      1.0000      0.0971      0.9500      0.5000      0.9500      0.0500      0.0100           0
aqxe            D                  1000.0000      0.0000    292.0000    372.6040      0.1200      0.0703      0.9500      0.5000      0.9500      0.0500      0.0100           0
aqxe            D                  1000.0000      0.0000    292.0000    372.6040      1.0000      0.0696      0.9500      0.5000      0.9500      0.0500      0.0100           0
aqxe            D                  1000.0000      0.0000    292.0000    372.6040      0.1200      0.0700      0.9500      0.5000      0.9500      0.0500      0.0100           0
aqxe            D                  1000.0000      0.0000    292.0000    372.6040      1.0000      0.1370      0.9500      0.5000      0.9500      0.0500      0.0100           0
aqxe            D                  1000.0000      0.0000    292.0000    372.6040      1.0000      0.3945      0.9500      0.5000      0.9500      0.0500      0.0100           0
aqxe            D                  1000.0000      0.0000    292.0000    372.6040      0.1200      0.0704      0.9500      0.5000      0.9500      0.0500      0.0100           0
aqxe            D                  1000.0000      0.0000    292.0000    372.6040      1.0000      0.3402      0.9500      0.5000      0.9500      0.0500      0.0100           0
aqxe            D                  1000.0000      0.0000    292.0000    372.6040      1.0000      0.1031      0.9500      0.5000      0.9500      0.0500      0.0100           0
aqxe            D                  1000.0000      0.0000    292.0000    372.6040      0.1200      0.0698      0.9500      0.5000      0.9500      0.0500      0.0100           0
aqxe            D                  1000.0000      0.0000    292.0000    372.6040      0.1200      0.0696      0.9500      0.5000      0.9500      0.0500      0.0100           0
aqxe            D                  1000.0000      0.0000    292.0000    372.6040      1.0000      0.1268      0.9500      0.5000      0.9500      0.0500      0.0100           0
aqxe            D                  1000.0000      0.0000    292.0000    372.6040      1.0000      0.2581      0.9500      0.5000      0.9500      0.0500      0.0100           0
aqxe            D                  1000.0000      0.0000    292.0000    372.6040      0.1200      0.0701      0.9500      0.5000      0.9500      0.0500      0.0100           0
aqxe            D                  1000.0000      0.0000    292.0000    372.6040      0.1200      0.0692      0.9500      0.5000      0.9500      0.0500      0.0100           0
aqxe            D                  1000.0000      0.0000    292.0000    372.6040      1.0000      0.0713      0.9500      0.5000      0.9500      0.0500      0.0100           0
aqxe            D                  1000.0000      0.0000    292.0000    372.6040      0.1200      0.0699      0.9500      0.5000      0.9500      0.0500      0.0100           0
aqxe            D                  1000.0000      0.0000    292.0000    372.6040      1.0000      0.1033      0.9500      0.5000      0.9500      0.0500      0.0100           0
aqxe            D                  1000.0000      0.0000    292.0000    372.6040      1.0000      0.2049      0.9500      0.5000      0.9500      0.0500      0.0100           0
aqxe            D                  1000.0000      0.0000    292.0000    372.6040      1.0000      0.3516      0.9500      0.5000      0.9500      0.0500      0.0100           0
aqxe            D                  1000.0000      0.0000    292.0000    372.6040      1.0000      0.0699      0.9500      0.5000      0.9500      0.0500      0.0100           0
aqxe1           D                  1000.0000      0.0000    292.0000    330.1656      0.1200      0.0682      0.9500      0.5000      0.9500      0.0500      0.0100           0
aqxe            D                  1000.0000      0.0000    292.0000    372.6040      1.0000      0.3983      0.9500      0.5000      0.9500      0.0500      0.0100           0
aqxe            D                  1000.0000      0.0000    292.0000    372.6040      0.1200      0.0694      0.9500      0.5000      0.9500      0.0500      0.0100           0
aqxe            D                  1000.0000      0.0000    292.0000    372.6040      1.0000      0.1892      0.9500      0.5000      0.9500      0.0500      0.0100           0
aqxe            D                  1000.0000      0.0000    292.0000    372.6040      0.1200      0.0681      0.9500      0.5000      0.9500      0.0500      0.0100           0
aqxe            D                  1000.0000      0.0000    292.0000    372.6040      0.1200      0.0677      0.9500      0.5000      0.9500      0.0500      0.0100           0
aqxe            D                  1000.0000      0.0000    292.0000    372.6040      1.0000      0.4196      0.9500      0.5000      0.9500      0.0500      0.0100           0
aqxe            D                  1000.0000      0.0000    292.0000    372.6040      1.0000      0.5583      0.9500      0.5000      0.9500      0.0500      0.0100           0
aqxe            D                  1000.0000      0.0000    292.0000    372.6040      0.1200      0.0665      0.9500      0.5000      0.9500      0.0500      0.0100           0
aqxe            D                  1000.0000      0.0000    292.0000    372.6040      1.0000      0.0650      0.9500      0.5000      0.9500      0.0500      0.0100           0
aqxe1           D                  1000.0000      0.0000    292.0000    330.1656      0.1200      0.0668      0.9500      0.5000      0.9500      0.0500      0.0100           0
aqxe            D                  1000.0000      0.0000    292.0000    372.6040      1.0000      0.0650      0.9500      0.5000      0.9500      0.0500      0.0100           0
aqxe1           D                  1000.0000      0.0000    292.0000    330.1656      0.1200      0.0658      0.9500      0.5000      0.9500      0.0500      0.0100           0
aqxe            D                  1000.0000      0.0000    292.0000    372.6040      1.0000      0.0744      0.9500      0.5000      0.9500      0.0500      0.0100           0
aqxe1           D                  1000.0000      0.0000    292.0000    330.1656      0.1200      0.0650      0.9500      0.5000      0.9500      0.0500      0.0100           0
aqxe            D                  1000.0000      0.0000    292.0000    372.6040      1.0000      0.0650      0.9500      0.5000      0.9500      0.0500      0.0100           0
aqxe1           D                  1000.0000      0.0000    292.0000    330.1656      0.1200      0.0656      0.9500      0.5000      0.9500      0.0500      0.0100           0
aqxe            D                  1000.0000      0.0000    292.0000    372.6040      1.0000      0.0650      0.9500      0.5000      0.9500      0.0500      0.0100           0
aqxe            D                  1000.0000      0.0000    292.0000    372.6040      1.0000      0.5470      0.9500      0.5000      0.9500      0.0500      0.0100           0
aqxe1           D                  1000.0000      0.0000    292.0000    330.1656      0.1200      0.0660      0.9500      0.5000      0.9500      0.0500      0.0100           0
aqxe            D                  1000.0000      0.0000    292.0000    372.6040      1.0000      0.5168      0.9500      0.5000      0.9500      0.0500      0.0100           0
aqxe            D                  1000.0000      0.0000    292.0000    372.6040      1.0000      0.4188      0.9500      0.5000      0.9500      0.0500      0.0100           0
aqxe            D                  1000.0000      0.0000    292.0000    372.6040      0.1200      0.0651      0.9500      0.5000      0.9500      0.0500      0.0100           0
aqxe            D                  1000.0000      0.0000    292.0000    372.6040      1.0000      0.0809      0.9500      0.5000      0.9500      0.0500      0.0100           0
aqxe1           D                  1000.0000      0.0000    292.0000    330.1656      0.1200      0.0650      0.9500      0.5000      0.9500      0.0500      0.0100           0
aqxe            D                  1000.0000      0.0000    292.0000    372.6040      1.0000      0.3172      0.9500      0.5000      0.9500      0.0500      0.0100           0
aqxe1           D                  1000.0000      0.0000    292.0000    330.1656      0.1200      0.0653      0.9500      0.5000      0.9500      0.0500      0.0100           0
aqxe            D                  1000.0000      0.0000    292.0000    372.6040      1.0000      0.0854      0.9500      0.5000      0.9500      0.0500      0.0100           0
aqxe1           D                  1000.0000      0.0000    292.0000    330.1656      0.1200      0.0650      0.9500      0.5000      0.9500      0.0500      0.0100           0
aqxe1           D                  1000.0000      0.0000    292.0000    330.1656      0.1200      0.0677      0.9500      0.5000      0.9500      0.0500      0.0100           0
aqxe            D                  1000.0000      0.0000    292.0000    372.6040      1.0000      0.5405      0.9500      0.5000      0.9500      0.0500      0.0100           0
aqxe            D                  1000.0000      0.0000    292.0000    372.6040      1.0000      0.0650      0.9500      0.5000      0.9500      0.0500      0.0100           0
aqxe1           D                  1000.0000      0.0000    292.0000    330.1656      0.1200      0.0650      0.9500      0.5000      0.9500      0.0500      0.0100           0
aqxe1           D                  1000.0000      0.0000    292.0000    330.1656      0.1200      0.0650      0.9500      0.5000      0.9500      0.0500      0.0100           0
aqxe            D                  1000.0000      0.0000    292.0000    372.6040      1.0000      0.0659      0.9500      0.5000      0.9500      0.0500      0.0100           0
aqxe1           D                  1000.0000      0.0000    292.0000    330.1656      0.1200      0.0651      0.9500      0.5000      0.9500      0.0500      0.0100           0
aqxe            D                  1000.0000      0.0000    292.0000    372.6040      1.0000      0.6849      0.9500      0.5000      0.9500      0.0500      0.0100           0
aqxe            D                  1000.0000      0.0000    292.0000    372.6040      0.1200      0.0672      0.9500      0.5000      0.9500      0.0500      0.0100           0
aqxe            D                  1000.0000      0.0000    292.0000    372.6040      1.0000      0.3789      0.9500      0.5000      0.9500      0.0500      0.0100           0
aqxe            D                  1000.0000      0.0000    292.0000    372.6040      1.0000      0.1941      0.9500      0.5000      0.9500      0.0500      0.0100           0
aqxe            D                  1000.0000      0.0000    292.0000    372.6040      0.1200      0.0675      0.9500      0.5000      0.9500      0.0500      0.0100           0
aqxe            D                  1000.0000      0.0000    292.0000    372.6040      1.0000      0.1400      0.9500      0.5000      0.9500      0.0500      0.0100           0
