 prueba                    SWAT+ Apr 12 2023       MODULAR Rev 2023.60.5.6                                
            e     s     p  peak_r   k_fac      slope          length   ls_factor    p_factor    c_factor       rsd_m  rsd_pctcov    rsd_cfac    can_lai3    can_hgt     can_cfac 
                                m                m/m               m                                           kg/ha     percent                                   m             
