 Tordera                   SWAT+ Jul 2 2024        MODULAR Rev 2024.61.0.1                                
                                        zmx       usle_k       sumfc       sumul      usle_p     usle_ls        esco        epco     cn3_swf       perco     latq_co   tiledrain 
 sname           hydgrp                 (mm)                    (mm)        (mm)                                                                                     0=notile;1=tile;
DSOLMap_1413    C                  2000.0000      0.0000    386.4500    795.2902      1.0000      0.6583      0.9500      0.5000      0.9500      0.5000      0.0100           0
DSOLMap_1413    C                  2000.0000      0.0000    386.4500    795.2902      1.0000      1.9243      0.9500      0.5000      0.9500      0.5000      0.0100           0
DSOLMap_1413    C                  2000.0000      0.0000    386.4500    795.2902      1.0000      0.1215      0.9500      0.5000      0.9500      0.5000      0.0100           0
DSOLMap_1410    C                  2000.0000      0.0000    281.4650    580.7205      1.0000      0.6387      0.9500      0.5000      0.9500      0.5000      0.0100           0
DSOLMap_1410    C                  2000.0000      0.0000    281.4650    580.7205      1.0000      0.1132      0.9500      0.5000      0.9500      0.5000      0.0100           0
DSOLMap_1410    C                  2000.0000      0.0000    281.4650    580.7205      1.0000      1.4734      0.9500      0.5000      0.9500      0.5000      0.0100           0
DSOLMap_945     C                  2000.0000      0.0000    338.2900    720.6178      1.0000      0.5420      0.9500      0.5000      0.9500      0.5000      0.0100           0
DSOLMap_945     C                  2000.0000      0.0000    338.2900    720.6178      1.0000      0.7656      0.9500      0.5000      0.9500      0.5000      0.0100           0
DSOLMap_945     C                  2000.0000      0.0000    338.2900    720.6178      1.0000      0.1568      0.9500      0.5000      0.9500      0.5000      0.0100           0
DSOLMap_1377    C                  2000.0000      0.0000    361.4750    705.0557      1.0000      0.1308      0.9500      0.5000      0.9500      0.5000      0.0100           0
DSOLMap_1377    C                  2000.0000      0.0000    361.4750    705.0557      1.0000      0.5773      0.9500      0.5000      0.9500      0.5000      0.0100           0
DSOLMap_1377    C                  2000.0000      0.0000    361.4750    705.0557      1.0000      0.8226      0.9500      0.5000      0.9500      0.5000      0.0100           0
DSOLMap_942     C                  2000.0000      0.0000    301.6450    628.7346      1.0000      0.1403      0.9500      0.5000      0.9500      0.5000      0.0100           0
DSOLMap_942     C                  2000.0000      0.0000    301.6450    628.7346      1.0000      0.3423      0.9500      0.5000      0.9500      0.5000      0.0100           0
DSOLMap_1410    C                  2000.0000      0.0000    281.4650    580.7205      1.0000      1.4581      0.9500      0.5000      0.9500      0.5000      0.0100           0
DSOLMap_1410    C                  2000.0000      0.0000    281.4650    580.7205      1.0000      0.1053      0.9500      0.5000      0.9500      0.5000      0.0100           0
DSOLMap_1410    C                  2000.0000      0.0000    281.4650    580.7205      1.0000      0.6327      0.9500      0.5000      0.9500      0.5000      0.0100           0
DSOLMap_942     C                  2000.0000      0.0000    301.6450    628.7346      1.0000      2.1037      0.9500      0.5000      0.9500      0.5000      0.0100           0
DSOLMap_942     C                  2000.0000      0.0000    301.6450    628.7346      1.0000      0.1043      0.9500      0.5000      0.9500      0.5000      0.0100           0
DSOLMap_942     C                  2000.0000      0.0000    301.6450    628.7346      1.0000      0.4880      0.9500      0.5000      0.9500      0.5000      0.0100           0
DSOLMap_1413    C                  2000.0000      0.0000    386.4500    795.2902      1.0000      0.1051      0.9500      0.5000      0.9500      0.5000      0.0100           0
DSOLMap_1413    C                  2000.0000      0.0000    386.4500    795.2902      1.0000      0.4582      0.9500      0.5000      0.9500      0.5000      0.0100           0
DSOLMap_1413    C                  2000.0000      0.0000    386.4500    795.2902      1.0000      0.7008      0.9500      0.5000      0.9500      0.5000      0.0100           0
DSOLMap_1374    C                  2000.0000      0.0000    301.9150    592.3920      1.0000      0.1044      0.9500      0.5000      0.9500      0.5000      0.0100           0
DSOLMap_1374    C                  2000.0000      0.0000    301.9150    592.3920      1.0000      0.6206      0.9500      0.5000      0.9500      0.5000      0.0100           0
DSOLMap_1374    C                  2000.0000      0.0000    301.9150    592.3920      1.0000      0.7452      0.9500      0.5000      0.9500      0.5000      0.0100           0
DSOLMap_1377    C                  2000.0000      0.0000    361.4750    705.0557      1.0000      0.1131      0.9500      0.5000      0.9500      0.5000      0.0100           0
DSOLMap_1377    C                  2000.0000      0.0000    361.4750    705.0557      1.0000      0.4034      0.9500      0.5000      0.9500      0.5000      0.0100           0
DSOLMap_945     C                  2000.0000      0.0000    338.2900    720.6178      1.0000      0.1069      0.9500      0.5000      0.9500      0.5000      0.0100           0
DSOLMap_1410    C                  2000.0000      0.0000    281.4650    580.7205      1.0000      0.1132      0.9500      0.5000      0.9500      0.5000      0.0100           0
DSOLMap_1410    C                  2000.0000      0.0000    281.4650    580.7205      1.0000      0.5099      0.9500      0.5000      0.9500      0.5000      0.0100           0
DSOLMap_1410    C                  2000.0000      0.0000    281.4650    580.7205      1.0000      1.7486      0.9500      0.5000      0.9500      0.5000      0.0100           0
DSOLMap_1413    C                  2000.0000      0.0000    386.4500    795.2902      1.0000      0.7071      0.9500      0.5000      0.9500      0.5000      0.0100           0
DSOLMap_1413    C                  2000.0000      0.0000    386.4500    795.2902      1.0000      0.1016      0.9500      0.5000      0.9500      0.5000      0.0100           0
DSOLMap_1413    C                  2000.0000      0.0000    386.4500    795.2902      1.0000      2.1167      0.9500      0.5000      0.9500      0.5000      0.0100           0
DSOLMap_1374    C                  2000.0000      0.0000    301.9150    592.3920      1.0000      0.1085      0.9500      0.5000      0.9500      0.5000      0.0100           0
DSOLMap_1374    C                  2000.0000      0.0000    301.9150    592.3920      1.0000      0.7804      0.9500      0.5000      0.9500      0.5000      0.0100           0
DSOLMap_1374    C                  2000.0000      0.0000    301.9150    592.3920      1.0000      0.6362      0.9500      0.5000      0.9500      0.5000      0.0100           0
DSOLMap_942     C                  2000.0000      0.0000    301.6450    628.7346      1.0000      0.5632      0.9500      0.5000      0.9500      0.5000      0.0100           0
DSOLMap_942     C                  2000.0000      0.0000    301.6450    628.7346      1.0000      0.7192      0.9500      0.5000      0.9500      0.5000      0.0100           0
DSOLMap_942     C                  2000.0000      0.0000    301.6450    628.7346      1.0000      0.1233      0.9500      0.5000      0.9500      0.5000      0.0100           0
DSOLMap_945     C                  2000.0000      0.0000    338.2900    720.6178      1.0000      0.0906      0.9500      0.5000      0.9500      0.5000      0.0100           0
DSOLMap_1413    C                  2000.0000      0.0000    386.4500    795.2902      1.0000      0.1040      0.9500      0.5000      0.9500      0.5000      0.0100           0
DSOLMap_1413    C                  2000.0000      0.0000    386.4500    795.2902      1.0000      0.4698      0.9500      0.5000      0.9500      0.5000      0.0100           0
DSOLMap_1410    C                  2000.0000      0.0000    281.4650    580.7205      1.0000      0.1075      0.9500      0.5000      0.9500      0.5000      0.0100           0
DSOLMap_1410    C                  2000.0000      0.0000    281.4650    580.7205      1.0000      0.3616      0.9500      0.5000      0.9500      0.5000      0.0100           0
DSOLMap_942     C                  2000.0000      0.0000    301.6450    628.7346      1.0000      0.1220      0.9500      0.5000      0.9500      0.5000      0.0100           0
DSOLMap_942     C                  2000.0000      0.0000    301.6450    628.7346      1.0000      0.4906      0.9500      0.5000      0.9500      0.5000      0.0100           0
DSOLMap_942     C                  2000.0000      0.0000    301.6450    628.7346      1.0000      0.6460      0.9500      0.5000      0.9500      0.5000      0.0100           0
DSOLMap_1881    B                  2000.0000      0.0000    274.2850    716.2769      1.0000      2.6576      0.9500      0.5000      0.9500      0.9000      0.0100           0
DSOLMap_1881    B                  2000.0000      0.0000    274.2850    716.2769      1.0000      0.5736      0.9500      0.5000      0.9500      0.9000      0.0100           0
DSOLMap_1881    B                  2000.0000      0.0000    274.2850    716.2769      1.0000      0.1788      0.9500      0.5000      0.9500      0.9000      0.0100           0
DSOLMap_1877    B                  2000.0000      0.0000    165.4070    630.8068      1.0000      2.4253      0.9500      0.5000      0.9500      0.9000      0.0100           0
DSOLMap_1877    B                  2000.0000      0.0000    165.4070    630.8068      1.0000      0.7251      0.9500      0.5000      0.9500      0.9000      0.0100           0
DSOLMap_1877    B                  2000.0000      0.0000    165.4070    630.8068      1.0000      0.1582      0.9500      0.5000      0.9500      0.9000      0.0100           0
DSOLMap_1884    B                  2000.0000      0.0000    239.7100    767.6328      1.0000      3.3763      0.9500      0.5000      0.9500      0.9000      0.0100           0
DSOLMap_1884    B                  2000.0000      0.0000    239.7100    767.6328      1.0000      0.8534      0.9500      0.5000      0.9500      0.9000      0.0100           0
DSOLMap_1413    C                  2000.0000      0.0000    386.4500    795.2902      1.0000      2.4545      0.9500      0.5000      0.9500      0.5000      0.0100           0
DSOLMap_1413    C                  2000.0000      0.0000    386.4500    795.2902      1.0000      0.6183      0.9500      0.5000      0.9500      0.5000      0.0100           0
DSOLMap_1413    C                  2000.0000      0.0000    386.4500    795.2902      1.0000      0.1978      0.9500      0.5000      0.9500      0.5000      0.0100           0
DSOLMap_1410    C                  2000.0000      0.0000    281.4650    580.7205      1.0000      0.5724      0.9500      0.5000      0.9500      0.5000      0.0100           0
DSOLMap_1410    C                  2000.0000      0.0000    281.4650    580.7205      1.0000      2.1205      0.9500      0.5000      0.9500      0.5000      0.0100           0
DSOLMap_1410    C                  2000.0000      0.0000    281.4650    580.7205      1.0000      0.1245      0.9500      0.5000      0.9500      0.5000      0.0100           0
DSOLMap_978     C                  2000.0000      0.0000    300.8650    754.7212      1.0000      0.6219      0.9500      0.5000      0.9500      0.5000      0.0100           0
DSOLMap_978     C                  2000.0000      0.0000    300.8650    754.7212      1.0000      0.1832      0.9500      0.5000      0.9500      0.5000      0.0100           0
DSOLMap_1445    C                  2000.0000      0.0000    323.4400    675.1871      1.0000      0.5459      0.9500      0.5000      0.9500      0.5000      0.0100           0
DSOLMap_1445    C                  2000.0000      0.0000    323.4400    675.1871      1.0000      0.1706      0.9500      0.5000      0.9500      0.5000      0.0100           0
DSOLMap_1445    C                  2000.0000      0.0000    323.4400    675.1871      1.0000      1.3890      0.9500      0.5000      0.9500      0.5000      0.0100           0
DSOLMap_1374    C                  2000.0000      0.0000    301.9150    592.3920      1.0000      0.7446      0.9500      0.5000      0.9500      0.5000      0.0100           0
DSOLMap_1374    C                  2000.0000      0.0000    301.9150    592.3920      1.0000      0.6950      0.9500      0.5000      0.9500      0.5000      0.0100           0
DSOLMap_1877    B                  2000.0000      0.0000    165.4070    630.8068      0.7500      1.0581      0.9500      0.5000      0.9500      0.9000      0.0100           0
DSOLMap_1877    B                  2000.0000      0.0000    165.4070    630.8068      0.7500      0.5706      0.9500      0.5000      0.9500      0.9000      0.0100           0
DSOLMap_1877    B                  2000.0000      0.0000    165.4070    630.8068      0.7500      0.1580      0.9500      0.5000      0.9500      0.9000      0.0100           0
DSOLMap_1884    B                  2000.0000      0.0000    239.7100    767.6328      0.7500      0.6131      0.9500      0.5000      0.9500      0.9000      0.0100           0
DSOLMap_1884    B                  2000.0000      0.0000    239.7100    767.6328      0.7500      0.8195      0.9500      0.5000      0.9500      0.9000      0.0100           0
DSOLMap_1884    B                  2000.0000      0.0000    239.7100    767.6328      0.7500      0.1896      0.9500      0.5000      0.9500      0.9000      0.0100           0
DSOLMap_1881    B                  2000.0000      0.0000    274.2850    716.2769      0.7500      1.2110      0.9500      0.5000      0.9500      0.9000      0.0100           0
DSOLMap_1881    B                  2000.0000      0.0000    274.2850    716.2769      0.7500      0.6099      0.9500      0.5000      0.9500      0.9000      0.0100           0
DSOLMap_1881    B                  2000.0000      0.0000    274.2850    716.2769      0.7500      0.1464      0.9500      0.5000      0.9500      0.9000      0.0100           0
DSOLMap_1410    C                  2000.0000      0.0000    281.4650    580.7205      0.7500      0.9593      0.9500      0.5000      0.9500      0.5000      0.0100           0
DSOLMap_1410    C                  2000.0000      0.0000    281.4650    580.7205      0.7500      0.6171      0.9500      0.5000      0.9500      0.5000      0.0100           0
DSOLMap_1410    C                  2000.0000      0.0000    281.4650    580.7205      0.7500      0.2110      0.9500      0.5000      0.9500      0.5000      0.0100           0
DSOLMap_1413    C                  2000.0000      0.0000    386.4500    795.2902      0.7500      0.7670      0.9500      0.5000      0.9500      0.5000      0.0100           0
DSOLMap_1413    C                  2000.0000      0.0000    386.4500    795.2902      0.7500      0.6720      0.9500      0.5000      0.9500      0.5000      0.0100           0
DSOLMap_1445    C                  2000.0000      0.0000    323.4400    675.1871      0.7500      1.0332      0.9500      0.5000      0.9500      0.5000      0.0100           0
DSOLMap_1445    C                  2000.0000      0.0000    323.4400    675.1871      0.7500      0.7564      0.9500      0.5000      0.9500      0.5000      0.0100           0
DSOLMap_1445    C                  2000.0000      0.0000    323.4400    675.1871      0.7500      0.1601      0.9500      0.5000      0.9500      0.5000      0.0100           0
DSOLMap_1877    B                  2000.0000      0.0000    165.4070    630.8068      0.7500      0.7580      0.9500      0.5000      0.9500      0.9000      0.0100           0
DSOLMap_1877    B                  2000.0000      0.0000    165.4070    630.8068      0.7500      0.8806      0.9500      0.5000      0.9500      0.9000      0.0100           0
DSOLMap_1410    C                  2000.0000      0.0000    281.4650    580.7205      0.7500      1.1235      0.9500      0.5000      0.9500      0.5000      0.0100           0
DSOLMap_1413    C                  2000.0000      0.0000    386.4500    795.2902      0.7500      1.0142      0.9500      0.5000      0.9500      0.5000      0.0100           0
DSOLMap_1413    C                  2000.0000      0.0000    386.4500    795.2902      0.7500      0.6557      0.9500      0.5000      0.9500      0.5000      0.0100           0
DSOLMap_1881    B                  2000.0000      0.0000    274.2850    716.2769      0.7500      1.0261      0.9500      0.5000      0.9500      0.9000      0.0100           0
DSOLMap_1881    B                  2000.0000      0.0000    274.2850    716.2769      0.7500      0.5902      0.9500      0.5000      0.9500      0.9000      0.0100           0
DSOLMap_1877    B                  2000.0000      0.0000    165.4070    630.8068      1.0000      0.6749      0.9500      0.5000      0.9500      0.9000      0.0100           0
DSOLMap_1877    B                  2000.0000      0.0000    165.4070    630.8068      1.0000      1.4728      0.9500      0.5000      0.9500      0.9000      0.0100           0
DSOLMap_1877    B                  2000.0000      0.0000    165.4070    630.8068      1.0000      0.2088      0.9500      0.5000      0.9500      0.9000      0.0100           0
DSOLMap_1445    C                  2000.0000      0.0000    323.4400    675.1871      1.0000      0.5334      0.9500      0.5000      0.9500      0.5000      0.0100           0
DSOLMap_1445    C                  2000.0000      0.0000    323.4400    675.1871      1.0000      0.6235      0.9500      0.5000      0.9500      0.5000      0.0100           0
DSOLMap_1445    C                  2000.0000      0.0000    323.4400    675.1871      1.0000      0.1903      0.9500      0.5000      0.9500      0.5000      0.0100           0
DSOLMap_1881    B                  2000.0000      0.0000    274.2850    716.2769      1.0000      2.0462      0.9500      0.5000      0.9500      0.9000      0.0100           0
DSOLMap_1881    B                  2000.0000      0.0000    274.2850    716.2769      1.0000      0.6240      0.9500      0.5000      0.9500      0.9000      0.0100           0
DSOLMap_1881    B                  2000.0000      0.0000    274.2850    716.2769      1.0000      0.1715      0.9500      0.5000      0.9500      0.9000      0.0100           0
DSOLMap_1410    C                  2000.0000      0.0000    281.4650    580.7205      1.0000      0.6767      0.9500      0.5000      0.9500      0.5000      0.0100           0
DSOLMap_1410    C                  2000.0000      0.0000    281.4650    580.7205      1.0000      0.1208      0.9500      0.5000      0.9500      0.5000      0.0100           0
DSOLMap_1410    C                  2000.0000      0.0000    281.4650    580.7205      1.0000      1.1033      0.9500      0.5000      0.9500      0.5000      0.0100           0
DSOLMap_1413    C                  2000.0000      0.0000    386.4500    795.2902      1.0000      0.6276      0.9500      0.5000      0.9500      0.5000      0.0100           0
DSOLMap_1413    C                  2000.0000      0.0000    386.4500    795.2902      1.0000      1.2276      0.9500      0.5000      0.9500      0.5000      0.0100           0
DSOLMap_1413    C                  2000.0000      0.0000    386.4500    795.2902      1.0000      0.1158      0.9500      0.5000      0.9500      0.5000      0.0100           0
DSOLMap_1374    C                  2000.0000      0.0000    301.9150    592.3920      1.0000      0.8653      0.9500      0.5000      0.9500      0.5000      0.0100           0
DSOLMap_1374    C                  2000.0000      0.0000    301.9150    592.3920      1.0000      0.5421      0.9500      0.5000      0.9500      0.5000      0.0100           0
DSOLMap_1374    C                  2000.0000      0.0000    301.9150    592.3920      1.0000      0.1090      0.9500      0.5000      0.9500      0.5000      0.0100           0
DSOLMap_942     C                  2000.0000      0.0000    301.6450    628.7346      1.0000      0.1038      0.9500      0.5000      0.9500      0.5000      0.0100           0
DSOLMap_942     C                  2000.0000      0.0000    301.6450    628.7346      1.0000      0.6015      0.9500      0.5000      0.9500      0.5000      0.0100           0
DSOLMap_942     C                  2000.0000      0.0000    301.6450    628.7346      1.0000      0.9620      0.9500      0.5000      0.9500      0.5000      0.0100           0
DSOLMap_1449    C                  2000.0000      0.0000    367.6800    770.4971      1.0000      0.5384      0.9500      0.5000      0.9500      0.5000      0.0100           0
DSOLMap_1449    C                  2000.0000      0.0000    367.6800    770.4971      1.0000      0.1564      0.9500      0.5000      0.9500      0.5000      0.0100           0
DSOLMap_1449    C                  2000.0000      0.0000    367.6800    770.4971      1.0000      1.1868      0.9500      0.5000      0.9500      0.5000      0.0100           0
DSOLMap_1377    C                  2000.0000      0.0000    361.4750    705.0557      1.0000      0.7677      0.9500      0.5000      0.9500      0.5000      0.0100           0
DSOLMap_1377    C                  2000.0000      0.0000    361.4750    705.0557      1.0000      0.7342      0.9500      0.5000      0.9500      0.5000      0.0100           0
DSOLMap_1377    C                  2000.0000      0.0000    361.4750    705.0557      1.0000      0.1118      0.9500      0.5000      0.9500      0.5000      0.0100           0
DSOLMap_945     C                  2000.0000      0.0000    338.2900    720.6178      1.0000      0.1663      0.9500      0.5000      0.9500      0.5000      0.0100           0
DSOLMap_945     C                  2000.0000      0.0000    338.2900    720.6178      1.0000      0.5606      0.9500      0.5000      0.9500      0.5000      0.0100           0
DSOLMap_945     C                  2000.0000      0.0000    338.2900    720.6178      1.0000      0.5796      0.9500      0.5000      0.9500      0.5000      0.0100           0
DSOLMap_978     C                  2000.0000      0.0000    300.8650    754.7212      1.0000      0.6211      0.9500      0.5000      0.9500      0.5000      0.0100           0
DSOLMap_978     C                  2000.0000      0.0000    300.8650    754.7212      1.0000      0.1937      0.9500      0.5000      0.9500      0.5000      0.0100           0
DSOLMap_978     C                  2000.0000      0.0000    300.8650    754.7212      1.0000      0.6039      0.9500      0.5000      0.9500      0.5000      0.0100           0
DSOLMap_1410    C                  2000.0000      0.0000    281.4650    580.7205      1.0000      0.6933      0.9500      0.5000      0.9500      0.5000      0.0100           0
DSOLMap_1410    C                  2000.0000      0.0000    281.4650    580.7205      1.0000      0.9151      0.9500      0.5000      0.9500      0.5000      0.0100           0
DSOLMap_1410    C                  2000.0000      0.0000    281.4650    580.7205      1.0000      0.1133      0.9500      0.5000      0.9500      0.5000      0.0100           0
DSOLMap_1413    C                  2000.0000      0.0000    386.4500    795.2902      1.0000      0.6253      0.9500      0.5000      0.9500      0.5000      0.0100           0
DSOLMap_1413    C                  2000.0000      0.0000    386.4500    795.2902      1.0000      0.8134      0.9500      0.5000      0.9500      0.5000      0.0100           0
DSOLMap_1374    C                  2000.0000      0.0000    301.9150    592.3920      1.0000      0.9898      0.9500      0.5000      0.9500      0.5000      0.0100           0
DSOLMap_1374    C                  2000.0000      0.0000    301.9150    592.3920      1.0000      0.7161      0.9500      0.5000      0.9500      0.5000      0.0100           0
DSOLMap_1374    C                  2000.0000      0.0000    301.9150    592.3920      1.0000      0.1155      0.9500      0.5000      0.9500      0.5000      0.0100           0
DSOLMap_1881    B                  2000.0000      0.0000    274.2850    716.2769      1.0000      1.2789      0.9500      0.5000      0.9500      0.9000      0.0100           0
DSOLMap_1374    C                  2000.0000      0.0000    301.9150    592.3920      1.0000      0.7382      0.9500      0.5000      0.9500      0.5000      0.0100           0
DSOLMap_1374    C                  2000.0000      0.0000    301.9150    592.3920      1.0000      0.1146      0.9500      0.5000      0.9500      0.5000      0.0100           0
DSOLMap_1374    C                  2000.0000      0.0000    301.9150    592.3920      1.0000      0.5640      0.9500      0.5000      0.9500      0.5000      0.0100           0
DSOLMap_1413    C                  2000.0000      0.0000    386.4500    795.2902      1.0000      0.1299      0.9500      0.5000      0.9500      0.5000      0.0100           0
DSOLMap_1413    C                  2000.0000      0.0000    386.4500    795.2902      1.0000      1.6537      0.9500      0.5000      0.9500      0.5000      0.0100           0
DSOLMap_1413    C                  2000.0000      0.0000    386.4500    795.2902      1.0000      0.6801      0.9500      0.5000      0.9500      0.5000      0.0100           0
DSOLMap_942     C                  2000.0000      0.0000    301.6450    628.7346      1.0000      0.6545      0.9500      0.5000      0.9500      0.5000      0.0100           0
DSOLMap_942     C                  2000.0000      0.0000    301.6450    628.7346      1.0000      0.1072      0.9500      0.5000      0.9500      0.5000      0.0100           0
DSOLMap_942     C                  2000.0000      0.0000    301.6450    628.7346      1.0000      0.8369      0.9500      0.5000      0.9500      0.5000      0.0100           0
DSOLMap_1410    C                  2000.0000      0.0000    281.4650    580.7205      1.0000      0.1170      0.9500      0.5000      0.9500      0.5000      0.0100           0
DSOLMap_1410    C                  2000.0000      0.0000    281.4650    580.7205      1.0000      1.2878      0.9500      0.5000      0.9500      0.5000      0.0100           0
DSOLMap_1410    C                  2000.0000      0.0000    281.4650    580.7205      1.0000      0.6713      0.9500      0.5000      0.9500      0.5000      0.0100           0
DSOLMap_1410    C                  2000.0000      0.0000    281.4650    580.7205      1.0000      0.6441      0.9500      0.5000      0.9500      0.5000      0.0100           0
DSOLMap_1410    C                  2000.0000      0.0000    281.4650    580.7205      1.0000      0.1321      0.9500      0.5000      0.9500      0.5000      0.0100           0
DSOLMap_1410    C                  2000.0000      0.0000    281.4650    580.7205      1.0000      0.7393      0.9500      0.5000      0.9500      0.5000      0.0100           0
DSOLMap_1413    C                  2000.0000      0.0000    386.4500    795.2902      1.0000      0.6074      0.9500      0.5000      0.9500      0.5000      0.0100           0
DSOLMap_1413    C                  2000.0000      0.0000    386.4500    795.2902      1.0000      0.7302      0.9500      0.5000      0.9500      0.5000      0.0100           0
DSOLMap_1413    C                  2000.0000      0.0000    386.4500    795.2902      1.0000      0.1217      0.9500      0.5000      0.9500      0.5000      0.0100           0
DSOLMap_942     C                  2000.0000      0.0000    301.6450    628.7346      1.0000      0.1282      0.9500      0.5000      0.9500      0.5000      0.0100           0
DSOLMap_942     C                  2000.0000      0.0000    301.6450    628.7346      1.0000      0.6757      0.9500      0.5000      0.9500      0.5000      0.0100           0
DSOLMap_942     C                  2000.0000      0.0000    301.6450    628.7346      1.0000      0.7504      0.9500      0.5000      0.9500      0.5000      0.0100           0
DSOLMap_1377    C                  2000.0000      0.0000    361.4750    705.0557      1.0000      0.8356      0.9500      0.5000      0.9500      0.5000      0.0100           0
DSOLMap_1377    C                  2000.0000      0.0000    361.4750    705.0557      1.0000      0.1444      0.9500      0.5000      0.9500      0.5000      0.0100           0
DSOLMap_1377    C                  2000.0000      0.0000    361.4750    705.0557      1.0000      0.7350      0.9500      0.5000      0.9500      0.5000      0.0100           0
DSOLMap_945     C                  2000.0000      0.0000    338.2900    720.6178      1.0000      0.1190      0.9500      0.5000      0.9500      0.5000      0.0100           0
DSOLMap_945     C                  2000.0000      0.0000    338.2900    720.6178      1.0000      0.7963      0.9500      0.5000      0.9500      0.5000      0.0100           0
DSOLMap_945     C                  2000.0000      0.0000    338.2900    720.6178      1.0000      0.6356      0.9500      0.5000      0.9500      0.5000      0.0100           0
DSOLMap_1374    C                  2000.0000      0.0000    301.9150    592.3920      1.0000      0.5534      0.9500      0.5000      0.9500      0.5000      0.0100           0
DSOLMap_1374    C                  2000.0000      0.0000    301.9150    592.3920      1.0000      0.1223      0.9500      0.5000      0.9500      0.5000      0.0100           0
DSOLMap_1374    C                  2000.0000      0.0000    301.9150    592.3920      1.0000      0.6894      0.9500      0.5000      0.9500      0.5000      0.0100           0
DSOLMap_1410    C                  2000.0000      0.0000    281.4650    580.7205      1.0000      3.4239      0.9500      0.5000      0.9500      0.5000      0.0100           0
DSOLMap_1410    C                  2000.0000      0.0000    281.4650    580.7205      1.0000      0.6089      0.9500      0.5000      0.9500      0.5000      0.0100           0
DSOLMap_1410    C                  2000.0000      0.0000    281.4650    580.7205      1.0000      0.1625      0.9500      0.5000      0.9500      0.5000      0.0100           0
DSOLMap_1413    C                  2000.0000      0.0000    386.4500    795.2902      1.0000      4.7253      0.9500      0.5000      0.9500      0.5000      0.0100           0
DSOLMap_1413    C                  2000.0000      0.0000    386.4500    795.2902      1.0000      0.5603      0.9500      0.5000      0.9500      0.5000      0.0100           0
DSOLMap_1413    C                  2000.0000      0.0000    386.4500    795.2902      1.0000      0.1526      0.9500      0.5000      0.9500      0.5000      0.0100           0
DSOLMap_1449    C                  2000.0000      0.0000    367.6800    770.4971      1.0000      4.7977      0.9500      0.5000      0.9500      0.5000      0.0100           0
DSOLMap_1881    B                  2000.0000      0.0000    274.2850    716.2769      1.0000      8.3112      0.9500      0.5000      0.9500      0.9000      0.0100           0
DSOLMap_1409    C                  2000.0000      0.0000    291.1800    665.2479      1.0000      6.5837      0.9500      0.5000      0.9500      0.5000      0.0100           0
DSOLMap_1881    B                  2000.0000      0.0000    274.2850    716.2769      1.0000      5.6182      0.9500      0.5000      0.9500      0.9000      0.0100           0
DSOLMap_1881    B                  2000.0000      0.0000    274.2850    716.2769      1.0000      0.6194      0.9500      0.5000      0.9500      0.9000      0.0100           0
DSOLMap_1881    B                  2000.0000      0.0000    274.2850    716.2769      1.0000      0.1134      0.9500      0.5000      0.9500      0.9000      0.0100           0
DSOLMap_1877    B                  2000.0000      0.0000    165.4070    630.8068      1.0000      5.1566      0.9500      0.5000      0.9500      0.9000      0.0100           0
DSOLMap_1877    B                  2000.0000      0.0000    165.4070    630.8068      1.0000      0.0996      0.9500      0.5000      0.9500      0.9000      0.0100           0
DSOLMap_1877    B                  2000.0000      0.0000    165.4070    630.8068      1.0000      0.5355      0.9500      0.5000      0.9500      0.9000      0.0100           0
DSOLMap_1884    B                  2000.0000      0.0000    239.7100    767.6328      1.0000      5.0549      0.9500      0.5000      0.9500      0.9000      0.0100           0
DSOLMap_1884    B                  2000.0000      0.0000    239.7100    767.6328      1.0000      0.0913      0.9500      0.5000      0.9500      0.9000      0.0100           0
DSOLMap_1884    B                  2000.0000      0.0000    239.7100    767.6328      1.0000      0.6029      0.9500      0.5000      0.9500      0.9000      0.0100           0
DSOLMap_1413    C                  2000.0000      0.0000    386.4500    795.2902      1.0000      3.0154      0.9500      0.5000      0.9500      0.5000      0.0100           0
DSOLMap_1413    C                  2000.0000      0.0000    386.4500    795.2902      1.0000      0.5429      0.9500      0.5000      0.9500      0.5000      0.0100           0
DSOLMap_1413    C                  2000.0000      0.0000    386.4500    795.2902      1.0000      0.1350      0.9500      0.5000      0.9500      0.5000      0.0100           0
DSOLMap_1410    C                  2000.0000      0.0000    281.4650    580.7205      1.0000      6.0191      0.9500      0.5000      0.9500      0.5000      0.0100           0
DSOLMap_1410    C                  2000.0000      0.0000    281.4650    580.7205      1.0000      0.6510      0.9500      0.5000      0.9500      0.5000      0.0100           0
DSOLMap_1374    C                  2000.0000      0.0000    301.9150    592.3920      1.0000      1.0244      0.9500      0.5000      0.9500      0.5000      0.0100           0
DSOLMap_1374    C                  2000.0000      0.0000    301.9150    592.3920      1.0000      0.8226      0.9500      0.5000      0.9500      0.5000      0.0100           0
DSOLMap_1413    C                  2000.0000      0.0000    386.4500    795.2902      1.0000      1.9224      0.9500      0.5000      0.9500      0.5000      0.0100           0
DSOLMap_1413    C                  2000.0000      0.0000    386.4500    795.2902      1.0000      0.5685      0.9500      0.5000      0.9500      0.5000      0.0100           0
DSOLMap_1413    C                  2000.0000      0.0000    386.4500    795.2902      1.0000      0.1579      0.9500      0.5000      0.9500      0.5000      0.0100           0
DSOLMap_1884    B                  2000.0000      0.0000    239.7100    767.6328      1.0000      3.0671      0.9500      0.5000      0.9500      0.9000      0.0100           0
DSOLMap_1884    B                  2000.0000      0.0000    239.7100    767.6328      1.0000      0.6958      0.9500      0.5000      0.9500      0.9000      0.0100           0
DSOLMap_1884    B                  2000.0000      0.0000    239.7100    767.6328      1.0000      0.2073      0.9500      0.5000      0.9500      0.9000      0.0100           0
DSOLMap_1881    B                  2000.0000      0.0000    274.2850    716.2769      1.0000      2.9632      0.9500      0.5000      0.9500      0.9000      0.0100           0
DSOLMap_1881    B                  2000.0000      0.0000    274.2850    716.2769      1.0000      0.6852      0.9500      0.5000      0.9500      0.9000      0.0100           0
DSOLMap_1881    B                  2000.0000      0.0000    274.2850    716.2769      1.0000      0.1564      0.9500      0.5000      0.9500      0.9000      0.0100           0
DSOLMap_1877    B                  2000.0000      0.0000    165.4070    630.8068      1.0000      2.1659      0.9500      0.5000      0.9500      0.9000      0.0100           0
DSOLMap_1877    B                  2000.0000      0.0000    165.4070    630.8068      1.0000      0.6691      0.9500      0.5000      0.9500      0.9000      0.0100           0
DSOLMap_1877    B                  2000.0000      0.0000    165.4070    630.8068      1.0000      0.1572      0.9500      0.5000      0.9500      0.9000      0.0100           0
DSOLMap_1374    C                  2000.0000      0.0000    301.9150    592.3920      1.0000      1.0145      0.9500      0.5000      0.9500      0.5000      0.0100           0
DSOLMap_1374    C                  2000.0000      0.0000    301.9150    592.3920      1.0000      0.8116      0.9500      0.5000      0.9500      0.5000      0.0100           0
DSOLMap_1374    C                  2000.0000      0.0000    301.9150    592.3920      1.0000      0.2802      0.9500      0.5000      0.9500      0.5000      0.0100           0
DSOLMap_1410    C                  2000.0000      0.0000    281.4650    580.7205      1.0000      0.9042      0.9500      0.5000      0.9500      0.5000      0.0100           0
DSOLMap_1410    C                  2000.0000      0.0000    281.4650    580.7205      1.0000      0.6966      0.9500      0.5000      0.9500      0.5000      0.0100           0
DSOLMap_1410    C                  2000.0000      0.0000    281.4650    580.7205      1.0000      0.1570      0.9500      0.5000      0.9500      0.5000      0.0100           0
DSOLMap_1884    B                  2000.0000      0.0000    239.7100    767.6328      1.0000      0.5455      0.9500      0.5000      0.9500      0.9000      0.0100           0
DSOLMap_1884    B                  2000.0000      0.0000    239.7100    767.6328      1.0000      2.8068      0.9500      0.5000      0.9500      0.9000      0.0100           0
DSOLMap_1884    B                  2000.0000      0.0000    239.7100    767.6328      1.0000      0.1226      0.9500      0.5000      0.9500      0.9000      0.0100           0
DSOLMap_1413    C                  2000.0000      0.0000    386.4500    795.2902      1.0000      1.6184      0.9500      0.5000      0.9500      0.5000      0.0100           0
DSOLMap_1413    C                  2000.0000      0.0000    386.4500    795.2902      1.0000      0.1890      0.9500      0.5000      0.9500      0.5000      0.0100           0
DSOLMap_1413    C                  2000.0000      0.0000    386.4500    795.2902      1.0000      0.7491      0.9500      0.5000      0.9500      0.5000      0.0100           0
DSOLMap_1877    B                  2000.0000      0.0000    165.4070    630.8068      1.0000      2.7995      0.9500      0.5000      0.9500      0.9000      0.0100           0
DSOLMap_1877    B                  2000.0000      0.0000    165.4070    630.8068      1.0000      0.0852      0.9500      0.5000      0.9500      0.9000      0.0100           0
DSOLMap_1877    B                  2000.0000      0.0000    165.4070    630.8068      1.0000      0.6356      0.9500      0.5000      0.9500      0.9000      0.0100           0
DSOLMap_1881    B                  2000.0000      0.0000    274.2850    716.2769      1.0000      2.5963      0.9500      0.5000      0.9500      0.9000      0.0100           0
DSOLMap_1881    B                  2000.0000      0.0000    274.2850    716.2769      1.0000      0.5866      0.9500      0.5000      0.9500      0.9000      0.0100           0
DSOLMap_1881    B                  2000.0000      0.0000    274.2850    716.2769      1.0000      0.1517      0.9500      0.5000      0.9500      0.9000      0.0100           0
DSOLMap_1410    C                  2000.0000      0.0000    281.4650    580.7205      1.0000      0.5628      0.9500      0.5000      0.9500      0.5000      0.0100           0
DSOLMap_1410    C                  2000.0000      0.0000    281.4650    580.7205      1.0000      1.1355      0.9500      0.5000      0.9500      0.5000      0.0100           0
DSOLMap_1410    C                  2000.0000      0.0000    281.4650    580.7205      1.0000      0.1609      0.9500      0.5000      0.9500      0.5000      0.0100           0
DSOLMap_978     C                  2000.0000      0.0000    300.8650    754.7212      1.0000      0.6200      0.9500      0.5000      0.9500      0.5000      0.0100           0
DSOLMap_978     C                  2000.0000      0.0000    300.8650    754.7212      1.0000      0.5643      0.9500      0.5000      0.9500      0.5000      0.0100           0
DSOLMap_978     C                  2000.0000      0.0000    300.8650    754.7212      1.0000      0.1330      0.9500      0.5000      0.9500      0.5000      0.0100           0
DSOLMap_1884    B                  2000.0000      0.0000    239.7100    767.6328      1.0000      4.0136      0.9500      0.5000      0.9500      0.9000      0.0100           0
DSOLMap_1884    B                  2000.0000      0.0000    239.7100    767.6328      1.0000      0.7690      0.9500      0.5000      0.9500      0.9000      0.0100           0
DSOLMap_1884    B                  2000.0000      0.0000    239.7100    767.6328      1.0000      0.0650      0.9500      0.5000      0.9500      0.9000      0.0100           0
DSOLMap_1877    B                  2000.0000      0.0000    165.4070    630.8068      1.0000      4.2469      0.9500      0.5000      0.9500      0.9000      0.0100           0
DSOLMap_1877    B                  2000.0000      0.0000    165.4070    630.8068      1.0000      0.6021      0.9500      0.5000      0.9500      0.9000      0.0100           0
DSOLMap_1877    B                  2000.0000      0.0000    165.4070    630.8068      1.0000      0.0650      0.9500      0.5000      0.9500      0.9000      0.0100           0
DSOLMap_1881    B                  2000.0000      0.0000    274.2850    716.2769      1.0000      3.6657      0.9500      0.5000      0.9500      0.9000      0.0100           0
DSOLMap_1881    B                  2000.0000      0.0000    274.2850    716.2769      1.0000      0.1027      0.9500      0.5000      0.9500      0.9000      0.0100           0
DSOLMap_1881    B                  2000.0000      0.0000    274.2850    716.2769      1.0000      0.5069      0.9500      0.5000      0.9500      0.9000      0.0100           0
DSOLMap_1413    C                  2000.0000      0.0000    386.4500    795.2902      1.0000      0.3992      0.9500      0.5000      0.9500      0.5000      0.0100           0
DSOLMap_1413    C                  2000.0000      0.0000    386.4500    795.2902      1.0000      0.1246      0.9500      0.5000      0.9500      0.5000      0.0100           0
DSOLMap_1410    C                  2000.0000      0.0000    281.4650    580.7205      1.0000      0.1163      0.9500      0.5000      0.9500      0.5000      0.0100           0
DSOLMap_1410    C                  2000.0000      0.0000    281.4650    580.7205      1.0000      0.5069      0.9500      0.5000      0.9500      0.5000      0.0100           0
DSOLMap_1410    C                  2000.0000      0.0000    281.4650    580.7205      1.0000      0.6611      0.9500      0.5000      0.9500      0.5000      0.0100           0
DSOLMap_1413    C                  2000.0000      0.0000    386.4500    795.2902      0.7500      1.3297      0.9500      0.5000      0.9500      0.5000      0.0100           0
DSOLMap_1413    C                  2000.0000      0.0000    386.4500    795.2902      0.7500      0.5448      0.9500      0.5000      0.9500      0.5000      0.0100           0
DSOLMap_1413    C                  2000.0000      0.0000    386.4500    795.2902      0.7500      0.1767      0.9500      0.5000      0.9500      0.5000      0.0100           0
DSOLMap_1877    B                  2000.0000      0.0000    165.4070    630.8068      0.7500      1.8094      0.9500      0.5000      0.9500      0.9000      0.0100           0
DSOLMap_1877    B                  2000.0000      0.0000    165.4070    630.8068      0.7500      0.5848      0.9500      0.5000      0.9500      0.9000      0.0100           0
DSOLMap_1881    B                  2000.0000      0.0000    274.2850    716.2769      0.7500      1.4966      0.9500      0.5000      0.9500      0.9000      0.0100           0
DSOLMap_1881    B                  2000.0000      0.0000    274.2850    716.2769      0.7500      0.7020      0.9500      0.5000      0.9500      0.9000      0.0100           0
DSOLMap_1881    B                  2000.0000      0.0000    274.2850    716.2769      0.7500      0.1632      0.9500      0.5000      0.9500      0.9000      0.0100           0
DSOLMap_1884    B                  2000.0000      0.0000    239.7100    767.6328      0.7500      2.0600      0.9500      0.5000      0.9500      0.9000      0.0100           0
DSOLMap_1884    B                  2000.0000      0.0000    239.7100    767.6328      0.7500      0.5395      0.9500      0.5000      0.9500      0.9000      0.0100           0
DSOLMap_1410    C                  2000.0000      0.0000    281.4650    580.7205      0.7500      0.1354      0.9500      0.5000      0.9500      0.5000      0.0100           0
DSOLMap_1410    C                  2000.0000      0.0000    281.4650    580.7205      0.7500      1.3290      0.9500      0.5000      0.9500      0.5000      0.0100           0
DSOLMap_1410    C                  2000.0000      0.0000    281.4650    580.7205      0.7500      0.7198      0.9500      0.5000      0.9500      0.5000      0.0100           0
DSOLMap_942     C                  2000.0000      0.0000    301.6450    628.7346      0.7500      0.9445      0.9500      0.5000      0.9500      0.5000      0.0100           0
DSOLMap_942     C                  2000.0000      0.0000    301.6450    628.7346      0.7500      0.7547      0.9500      0.5000      0.9500      0.5000      0.0100           0
DSOLMap_978     C                  2000.0000      0.0000    300.8650    754.7212      0.7500      0.9693      0.9500      0.5000      0.9500      0.5000      0.0100           0
DSOLMap_1884    B                  2000.0000      0.0000    239.7100    767.6328      0.7500      0.1238      0.9500      0.5000      0.9500      0.9000      0.0100           0
DSOLMap_1884    B                  2000.0000      0.0000    239.7100    767.6328      0.7500      0.6138      0.9500      0.5000      0.9500      0.9000      0.0100           0
DSOLMap_1884    B                  2000.0000      0.0000    239.7100    767.6328      0.7500      1.5543      0.9500      0.5000      0.9500      0.9000      0.0100           0
DSOLMap_1877    B                  2000.0000      0.0000    165.4070    630.8068      0.7500      0.1608      0.9500      0.5000      0.9500      0.9000      0.0100           0
DSOLMap_1877    B                  2000.0000      0.0000    165.4070    630.8068      0.7500      0.7192      0.9500      0.5000      0.9500      0.9000      0.0100           0
DSOLMap_1877    B                  2000.0000      0.0000    165.4070    630.8068      0.7500      1.1062      0.9500      0.5000      0.9500      0.9000      0.0100           0
DSOLMap_1881    B                  2000.0000      0.0000    274.2850    716.2769      0.7500      0.6264      0.9500      0.5000      0.9500      0.9000      0.0100           0
DSOLMap_1881    B                  2000.0000      0.0000    274.2850    716.2769      0.7500      0.1304      0.9500      0.5000      0.9500      0.9000      0.0100           0
DSOLMap_1881    B                  2000.0000      0.0000    274.2850    716.2769      0.7500      0.8840      0.9500      0.5000      0.9500      0.9000      0.0100           0
DSOLMap_1410    C                  2000.0000      0.0000    281.4650    580.7205      0.7500      0.6711      0.9500      0.5000      0.9500      0.5000      0.0100           0
DSOLMap_1410    C                  2000.0000      0.0000    281.4650    580.7205      0.7500      1.3809      0.9500      0.5000      0.9500      0.5000      0.0100           0
DSOLMap_1410    C                  2000.0000      0.0000    281.4650    580.7205      0.7500      0.1390      0.9500      0.5000      0.9500      0.5000      0.0100           0
DSOLMap_942     C                  2000.0000      0.0000    301.6450    628.7346      0.7500      0.5083      0.9500      0.5000      0.9500      0.5000      0.0100           0
DSOLMap_942     C                  2000.0000      0.0000    301.6450    628.7346      0.7500      0.2499      0.9500      0.5000      0.9500      0.5000      0.0100           0
DSOLMap_1413    C                  2000.0000      0.0000    386.4500    795.2902      0.7500      0.4390      0.9500      0.5000      0.9500      0.5000      0.0100           0
DSOLMap_1413    C                  2000.0000      0.0000    386.4500    795.2902      0.7500      0.1925      0.9500      0.5000      0.9500      0.5000      0.0100           0
DSOLMap_1881    B                  2000.0000      0.0000    274.2850    716.2769      1.0000      0.4824      0.9500      0.5000      0.9500      0.9000      0.0100           0
DSOLMap_1881    B                  2000.0000      0.0000    274.2850    716.2769      1.0000      0.1567      0.9500      0.5000      0.9500      0.9000      0.0100           0
DSOLMap_1881    B                  2000.0000      0.0000    274.2850    716.2769      1.0000      1.2039      0.9500      0.5000      0.9500      0.9000      0.0100           0
DSOLMap_1410    C                  2000.0000      0.0000    281.4650    580.7205      1.0000      1.4005      0.9500      0.5000      0.9500      0.5000      0.0100           0
DSOLMap_1410    C                  2000.0000      0.0000    281.4650    580.7205      1.0000      0.5497      0.9500      0.5000      0.9500      0.5000      0.0100           0
DSOLMap_1410    C                  2000.0000      0.0000    281.4650    580.7205      1.0000      0.1254      0.9500      0.5000      0.9500      0.5000      0.0100           0
DSOLMap_1413    C                  2000.0000      0.0000    386.4500    795.2902      1.0000      0.1335      0.9500      0.5000      0.9500      0.5000      0.0100           0
DSOLMap_1413    C                  2000.0000      0.0000    386.4500    795.2902      1.0000      0.4873      0.9500      0.5000      0.9500      0.5000      0.0100           0
DSOLMap_1413    C                  2000.0000      0.0000    386.4500    795.2902      1.0000      1.7014      0.9500      0.5000      0.9500      0.5000      0.0100           0
DSOLMap_942     C                  2000.0000      0.0000    301.6450    628.7346      1.0000      0.6496      0.9500      0.5000      0.9500      0.5000      0.0100           0
DSOLMap_942     C                  2000.0000      0.0000    301.6450    628.7346      1.0000      0.8777      0.9500      0.5000      0.9500      0.5000      0.0100           0
DSOLMap_942     C                  2000.0000      0.0000    301.6450    628.7346      1.0000      0.1092      0.9500      0.5000      0.9500      0.5000      0.0100           0
DSOLMap_1410    C                  2000.0000      0.0000    281.4650    580.7205      1.0000      0.6699      0.9500      0.5000      0.9500      0.5000      0.0100           0
DSOLMap_1410    C                  2000.0000      0.0000    281.4650    580.7205      1.0000      0.1478      0.9500      0.5000      0.9500      0.5000      0.0100           0
DSOLMap_1410    C                  2000.0000      0.0000    281.4650    580.7205      1.0000      1.5562      0.9500      0.5000      0.9500      0.5000      0.0100           0
DSOLMap_978     C                  2000.0000      0.0000    300.8650    754.7212      1.0000      0.5559      0.9500      0.5000      0.9500      0.5000      0.0100           0
DSOLMap_978     C                  2000.0000      0.0000    300.8650    754.7212      1.0000      0.9908      0.9500      0.5000      0.9500      0.5000      0.0100           0
DSOLMap_1413    C                  2000.0000      0.0000    386.4500    795.2902      1.0000      0.1480      0.9500      0.5000      0.9500      0.5000      0.0100           0
DSOLMap_1413    C                  2000.0000      0.0000    386.4500    795.2902      1.0000      2.4353      0.9500      0.5000      0.9500      0.5000      0.0100           0
DSOLMap_1413    C                  2000.0000      0.0000    386.4500    795.2902      1.0000      0.4227      0.9500      0.5000      0.9500      0.5000      0.0100           0
DSOLMap_1410    C                  2000.0000      0.0000    281.4650    580.7205      1.0000      0.1409      0.9500      0.5000      0.9500      0.5000      0.0100           0
DSOLMap_1410    C                  2000.0000      0.0000    281.4650    580.7205      1.0000      0.6490      0.9500      0.5000      0.9500      0.5000      0.0100           0
DSOLMap_1410    C                  2000.0000      0.0000    281.4650    580.7205      1.0000      0.6751      0.9500      0.5000      0.9500      0.5000      0.0100           0
DSOLMap_1413    C                  2000.0000      0.0000    386.4500    795.2902      1.0000      0.6221      0.9500      0.5000      0.9500      0.5000      0.0100           0
DSOLMap_1413    C                  2000.0000      0.0000    386.4500    795.2902      1.0000      0.7306      0.9500      0.5000      0.9500      0.5000      0.0100           0
DSOLMap_1413    C                  2000.0000      0.0000    386.4500    795.2902      1.0000      0.1352      0.9500      0.5000      0.9500      0.5000      0.0100           0
DSOLMap_1374    C                  2000.0000      0.0000    301.9150    592.3920      1.0000      0.9936      0.9500      0.5000      0.9500      0.5000      0.0100           0
DSOLMap_1374    C                  2000.0000      0.0000    301.9150    592.3920      1.0000      0.0650      0.9500      0.5000      0.9500      0.5000      0.0100           0
DSOLMap_1374    C                  2000.0000      0.0000    301.9150    592.3920      1.0000      0.5349      0.9500      0.5000      0.9500      0.5000      0.0100           0
DSOLMap_1410    C                  2000.0000      0.0000    281.4650    580.7205      1.0000      0.8692      0.9500      0.5000      0.9500      0.5000      0.0100           0
DSOLMap_1410    C                  2000.0000      0.0000    281.4650    580.7205      1.0000      0.1217      0.9500      0.5000      0.9500      0.5000      0.0100           0
DSOLMap_1410    C                  2000.0000      0.0000    281.4650    580.7205      1.0000      0.5407      0.9500      0.5000      0.9500      0.5000      0.0100           0
DSOLMap_1413    C                  2000.0000      0.0000    386.4500    795.2902      1.0000      0.7356      0.9500      0.5000      0.9500      0.5000      0.0100           0
DSOLMap_1413    C                  2000.0000      0.0000    386.4500    795.2902      1.0000      0.6721      0.9500      0.5000      0.9500      0.5000      0.0100           0
DSOLMap_1413    C                  2000.0000      0.0000    386.4500    795.2902      1.0000      0.1196      0.9500      0.5000      0.9500      0.5000      0.0100           0
DSOLMap_1410    C                  2000.0000      0.0000    281.4650    580.7205      1.0000      1.6685      0.9500      0.5000      0.9500      0.5000      0.0100           0
DSOLMap_1410    C                  2000.0000      0.0000    281.4650    580.7205      1.0000      0.1154      0.9500      0.5000      0.9500      0.5000      0.0100           0
DSOLMap_1410    C                  2000.0000      0.0000    281.4650    580.7205      1.0000      0.4217      0.9500      0.5000      0.9500      0.5000      0.0100           0
DSOLMap_1374    C                  2000.0000      0.0000    301.9150    592.3920      1.0000      2.4829      0.9500      0.5000      0.9500      0.5000      0.0100           0
DSOLMap_1374    C                  2000.0000      0.0000    301.9150    592.3920      1.0000      0.1329      0.9500      0.5000      0.9500      0.5000      0.0100           0
DSOLMap_1374    C                  2000.0000      0.0000    301.9150    592.3920      1.0000      0.5501      0.9500      0.5000      0.9500      0.5000      0.0100           0
DSOLMap_1413    C                  2000.0000      0.0000    386.4500    795.2902      1.0000      0.1410      0.9500      0.5000      0.9500      0.5000      0.0100           0
DSOLMap_1413    C                  2000.0000      0.0000    386.4500    795.2902      1.0000      0.6182      0.9500      0.5000      0.9500      0.5000      0.0100           0
DSOLMap_1410    C                  2000.0000      0.0000    281.4650    580.7205      1.0000      0.1054      0.9500      0.5000      0.9500      0.5000      0.0100           0
DSOLMap_1410    C                  2000.0000      0.0000    281.4650    580.7205      1.0000      0.6257      0.9500      0.5000      0.9500      0.5000      0.0100           0
DSOLMap_1410    C                  2000.0000      0.0000    281.4650    580.7205      1.0000      1.7964      0.9500      0.5000      0.9500      0.5000      0.0100           0
DSOLMap_942     C                  2000.0000      0.0000    301.6450    628.7346      1.0000      0.0813      0.9500      0.5000      0.9500      0.5000      0.0100           0
DSOLMap_942     C                  2000.0000      0.0000    301.6450    628.7346      1.0000      0.6982      0.9500      0.5000      0.9500      0.5000      0.0100           0
DSOLMap_942     C                  2000.0000      0.0000    301.6450    628.7346      1.0000      2.7161      0.9500      0.5000      0.9500      0.5000      0.0100           0
DSOLMap_1374    C                  2000.0000      0.0000    301.9150    592.3920      1.0000      3.3693      0.9500      0.5000      0.9500      0.5000      0.0100           0
DSOLMap_1374    C                  2000.0000      0.0000    301.9150    592.3920      1.0000      0.7009      0.9500      0.5000      0.9500      0.5000      0.0100           0
DSOLMap_1413    C                  2000.0000      0.0000    386.4500    795.2902      1.0000      0.1014      0.9500      0.5000      0.9500      0.5000      0.0100           0
DSOLMap_1413    C                  2000.0000      0.0000    386.4500    795.2902      1.0000      0.7317      0.9500      0.5000      0.9500      0.5000      0.0100           0
DSOLMap_1413    C                  2000.0000      0.0000    386.4500    795.2902      1.0000      1.1142      0.9500      0.5000      0.9500      0.5000      0.0100           0
DSOLMap_1410    C                  2000.0000      0.0000    281.4650    580.7205      1.0000      0.1170      0.9500      0.5000      0.9500      0.5000      0.0100           0
DSOLMap_1410    C                  2000.0000      0.0000    281.4650    580.7205      1.0000      0.6217      0.9500      0.5000      0.9500      0.5000      0.0100           0
DSOLMap_1410    C                  2000.0000      0.0000    281.4650    580.7205      1.0000      1.2920      0.9500      0.5000      0.9500      0.5000      0.0100           0
DSOLMap_1410    C                  2000.0000      0.0000    281.4650    580.7205      1.0000      0.7065      0.9500      0.5000      0.9500      0.5000      0.0100           0
DSOLMap_1410    C                  2000.0000      0.0000    281.4650    580.7205      1.0000      0.1399      0.9500      0.5000      0.9500      0.5000      0.0100           0
DSOLMap_1410    C                  2000.0000      0.0000    281.4650    580.7205      1.0000      1.4149      0.9500      0.5000      0.9500      0.5000      0.0100           0
DSOLMap_1413    C                  2000.0000      0.0000    386.4500    795.2902      1.0000      1.6352      0.9500      0.5000      0.9500      0.5000      0.0100           0
DSOLMap_1413    C                  2000.0000      0.0000    386.4500    795.2902      1.0000      0.6484      0.9500      0.5000      0.9500      0.5000      0.0100           0
DSOLMap_1413    C                  2000.0000      0.0000    386.4500    795.2902      1.0000      0.1212      0.9500      0.5000      0.9500      0.5000      0.0100           0
DSOLMap_1881    B                  2000.0000      0.0000    274.2850    716.2769      1.0000      1.7929      0.9500      0.5000      0.9500      0.9000      0.0100           0
DSOLMap_1449    C                  2000.0000      0.0000    367.6800    770.4971      1.0000      0.7898      0.9500      0.5000      0.9500      0.5000      0.0100           0
DSOLMap_1449    C                  2000.0000      0.0000    367.6800    770.4971      1.0000      0.5391      0.9500      0.5000      0.9500      0.5000      0.0100           0
DSOLMap_1845    C                  2000.0000      0.0000    273.2450    738.6061      1.0000      0.6439      0.9500      0.5000      0.9500      0.5000      0.0100           0
DSOLMap_1845    C                  2000.0000      0.0000    273.2450    738.6061      1.0000      0.1305      0.9500      0.5000      0.9500      0.5000      0.0100           0
DSOLMap_1845    C                  2000.0000      0.0000    273.2450    738.6061      1.0000      2.9688      0.9500      0.5000      0.9500      0.5000      0.0100           0
DSOLMap_1374    C                  2000.0000      0.0000    301.9150    592.3920      0.7500      0.1401      0.9500      0.5000      0.9500      0.5000      0.0100           0
DSOLMap_1374    C                  2000.0000      0.0000    301.9150    592.3920      0.7500      0.4130      0.9500      0.5000      0.9500      0.5000      0.0100           0
DSOLMap_1410    C                  2000.0000      0.0000    281.4650    580.7205      0.7500      0.1030      0.9500      0.5000      0.9500      0.5000      0.0100           0
DSOLMap_1410    C                  2000.0000      0.0000    281.4650    580.7205      0.7500      0.5019      0.9500      0.5000      0.9500      0.5000      0.0100           0
DSOLMap_1413    C                  2000.0000      0.0000    386.4500    795.2902      0.7500      0.1108      0.9500      0.5000      0.9500      0.5000      0.0100           0
DSOLMap_1413    C                  2000.0000      0.0000    386.4500    795.2902      0.7500      0.6148      0.9500      0.5000      0.9500      0.5000      0.0100           0
DSOLMap_1413    C                  2000.0000      0.0000    386.4500    795.2902      0.7500      1.1146      0.9500      0.5000      0.9500      0.5000      0.0100           0
DSOLMap_1413    C                  2000.0000      0.0000    386.4500    795.2902      1.0000      0.4471      0.9500      0.5000      0.9500      0.5000      0.0100           0
DSOLMap_1413    C                  2000.0000      0.0000    386.4500    795.2902      1.0000      0.1077      0.9500      0.5000      0.9500      0.5000      0.0100           0
DSOLMap_1413    C                  2000.0000      0.0000    386.4500    795.2902      1.0000      0.6314      0.9500      0.5000      0.9500      0.5000      0.0100           0
DSOLMap_1410    C                  2000.0000      0.0000    281.4650    580.7205      1.0000      0.8086      0.9500      0.5000      0.9500      0.5000      0.0100           0
DSOLMap_1410    C                  2000.0000      0.0000    281.4650    580.7205      1.0000      0.0650      0.9500      0.5000      0.9500      0.5000      0.0100           0
DSOLMap_1410    C                  2000.0000      0.0000    281.4650    580.7205      1.0000      0.9566      0.9500      0.5000      0.9500      0.5000      0.0100           0
DSOLMap_1413    C                  2000.0000      0.0000    386.4500    795.2902      1.0000      1.5101      0.9500      0.5000      0.9500      0.5000      0.0100           0
DSOLMap_1413    C                  2000.0000      0.0000    386.4500    795.2902      1.0000      0.6594      0.9500      0.5000      0.9500      0.5000      0.0100           0
DSOLMap_1413    C                  2000.0000      0.0000    386.4500    795.2902      1.0000      0.1434      0.9500      0.5000      0.9500      0.5000      0.0100           0
DSOLMap_1410    C                  2000.0000      0.0000    281.4650    580.7205      1.0000      0.6911      0.9500      0.5000      0.9500      0.5000      0.0100           0
DSOLMap_1410    C                  2000.0000      0.0000    281.4650    580.7205      1.0000      1.2205      0.9500      0.5000      0.9500      0.5000      0.0100           0
DSOLMap_1410    C                  2000.0000      0.0000    281.4650    580.7205      1.0000      0.1513      0.9500      0.5000      0.9500      0.5000      0.0100           0
DSOLMap_1881    B                  2000.0000      0.0000    274.2850    716.2769      1.0000      1.5154      0.9500      0.5000      0.9500      0.9000      0.0100           0
DSOLMap_1881    B                  2000.0000      0.0000    274.2850    716.2769      1.0000      0.6319      0.9500      0.5000      0.9500      0.9000      0.0100           0
DSOLMap_1881    B                  2000.0000      0.0000    274.2850    716.2769      1.0000      0.1470      0.9500      0.5000      0.9500      0.9000      0.0100           0
DSOLMap_1877    B                  2000.0000      0.0000    165.4070    630.8068      1.0000      1.4788      0.9500      0.5000      0.9500      0.9000      0.0100           0
DSOLMap_1877    B                  2000.0000      0.0000    165.4070    630.8068      1.0000      0.6791      0.9500      0.5000      0.9500      0.9000      0.0100           0
DSOLMap_1877    B                  2000.0000      0.0000    165.4070    630.8068      1.0000      0.1010      0.9500      0.5000      0.9500      0.9000      0.0100           0
DSOLMap_1449    C                  2000.0000      0.0000    367.6800    770.4971      1.0000      1.5761      0.9500      0.5000      0.9500      0.5000      0.0100           0
DSOLMap_1449    C                  2000.0000      0.0000    367.6800    770.4971      1.0000      0.5607      0.9500      0.5000      0.9500      0.5000      0.0100           0
DSOLMap_1449    C                  2000.0000      0.0000    367.6800    770.4971      1.0000      0.1292      0.9500      0.5000      0.9500      0.5000      0.0100           0
DSOLMap_1374    C                  2000.0000      0.0000    301.9150    592.3920      1.0000      1.2393      0.9500      0.5000      0.9500      0.5000      0.0100           0
DSOLMap_1374    C                  2000.0000      0.0000    301.9150    592.3920      1.0000      0.1579      0.9500      0.5000      0.9500      0.5000      0.0100           0
DSOLMap_1374    C                  2000.0000      0.0000    301.9150    592.3920      1.0000      0.7253      0.9500      0.5000      0.9500      0.5000      0.0100           0
DSOLMap_1413    C                  2000.0000      0.0000    386.4500    795.2902      1.0000      3.9163      0.9500      0.5000      0.9500      0.5000      0.0100           0
DSOLMap_1413    C                  2000.0000      0.0000    386.4500    795.2902      1.0000      0.7464      0.9500      0.5000      0.9500      0.5000      0.0100           0
DSOLMap_1413    C                  2000.0000      0.0000    386.4500    795.2902      1.0000      0.1356      0.9500      0.5000      0.9500      0.5000      0.0100           0
DSOLMap_1410    C                  2000.0000      0.0000    281.4650    580.7205      1.0000      1.6935      0.9500      0.5000      0.9500      0.5000      0.0100           0
DSOLMap_1410    C                  2000.0000      0.0000    281.4650    580.7205      1.0000      0.6436      0.9500      0.5000      0.9500      0.5000      0.0100           0
DSOLMap_1410    C                  2000.0000      0.0000    281.4650    580.7205      1.0000      0.1509      0.9500      0.5000      0.9500      0.5000      0.0100           0
DSOLMap_1881    B                  2000.0000      0.0000    274.2850    716.2769      1.0000      0.5785      0.9500      0.5000      0.9500      0.9000      0.0100           0
DSOLMap_1881    B                  2000.0000      0.0000    274.2850    716.2769      1.0000      2.5055      0.9500      0.5000      0.9500      0.9000      0.0100           0
DSOLMap_1881    B                  2000.0000      0.0000    274.2850    716.2769      1.0000      0.0833      0.9500      0.5000      0.9500      0.9000      0.0100           0
DSOLMap_1877    B                  2000.0000      0.0000    165.4070    630.8068      1.0000      2.8098      0.9500      0.5000      0.9500      0.9000      0.0100           0
DSOLMap_1877    B                  2000.0000      0.0000    165.4070    630.8068      1.0000      0.5946      0.9500      0.5000      0.9500      0.9000      0.0100           0
DSOLMap_1877    B                  2000.0000      0.0000    165.4070    630.8068      1.0000      0.1086      0.9500      0.5000      0.9500      0.9000      0.0100           0
DSOLMap_1884    B                  2000.0000      0.0000    239.7100    767.6328      1.0000      2.9892      0.9500      0.5000      0.9500      0.9000      0.0100           0
DSOLMap_1884    B                  2000.0000      0.0000    239.7100    767.6328      1.0000      0.6309      0.9500      0.5000      0.9500      0.9000      0.0100           0
DSOLMap_1884    B                  2000.0000      0.0000    239.7100    767.6328      1.0000      0.0945      0.9500      0.5000      0.9500      0.9000      0.0100           0
DSOLMap_1449    C                  2000.0000      0.0000    367.6800    770.4971      1.0000      3.0878      0.9500      0.5000      0.9500      0.5000      0.0100           0
DSOLMap_1449    C                  2000.0000      0.0000    367.6800    770.4971      1.0000      0.7325      0.9500      0.5000      0.9500      0.5000      0.0100           0
DSOLMap_1449    C                  2000.0000      0.0000    367.6800    770.4971      1.0000      0.1554      0.9500      0.5000      0.9500      0.5000      0.0100           0
DSOLMap_1374    C                  2000.0000      0.0000    301.9150    592.3920      1.0000      1.3257      0.9500      0.5000      0.9500      0.5000      0.0100           0
DSOLMap_1374    C                  2000.0000      0.0000    301.9150    592.3920      1.0000      0.9696      0.9500      0.5000      0.9500      0.5000      0.0100           0
DSOLMap_1845    C                  2000.0000      0.0000    273.2450    738.6061      1.0000      0.1277      0.9500      0.5000      0.9500      0.5000      0.0100           0
DSOLMap_1845    C                  2000.0000      0.0000    273.2450    738.6061      1.0000      0.6725      0.9500      0.5000      0.9500      0.5000      0.0100           0
DSOLMap_1845    C                  2000.0000      0.0000    273.2450    738.6061      1.0000      3.6249      0.9500      0.5000      0.9500      0.5000      0.0100           0
DSOLMap_1874    B                  2000.0000      0.0000    247.4650    666.3545      1.0000      4.3593      0.9500      0.5000      0.9500      0.9000      0.0100           0
DSOLMap_1874    B                  2000.0000      0.0000    247.4650    666.3545      1.0000      0.6793      0.9500      0.5000      0.9500      0.9000      0.0100           0
DSOLMap_1874    B                  2000.0000      0.0000    247.4650    666.3545      1.0000      0.1551      0.9500      0.5000      0.9500      0.9000      0.0100           0
DSOLMap_1793    C                  2000.0000      0.0000    146.8300    592.7676      1.0000      4.5577      0.9500      0.5000      0.9500      0.5000      0.0100           0
DSOLMap_1793    C                  2000.0000      0.0000    146.8300    592.7676      1.0000      0.5380      0.9500      0.5000      0.9500      0.5000      0.0100           0
DSOLMap_1793    C                  2000.0000      0.0000    146.8300    592.7676      1.0000      0.1347      0.9500      0.5000      0.9500      0.5000      0.0100           0
DSOLMap_1409    C                  2000.0000      0.0000    291.1800    665.2479      1.0000      0.1056      0.9500      0.5000      0.9500      0.5000      0.0100           0
DSOLMap_1409    C                  2000.0000      0.0000    291.1800    665.2479      1.0000      6.4289      0.9500      0.5000      0.9500      0.5000      0.0100           0
DSOLMap_1409    C                  2000.0000      0.0000    291.1800    665.2479      1.0000      0.5479      0.9500      0.5000      0.9500      0.5000      0.0100           0
DSOLMap_833     C                  2000.0000      0.0000    256.3200    714.6858      1.0000      0.5474      0.9500      0.5000      0.9500      0.5000      0.0100           0
DSOLMap_833     C                  2000.0000      0.0000    256.3200    714.6858      1.0000      4.1794      0.9500      0.5000      0.9500      0.5000      0.0100           0
DSOLMap_833     C                  2000.0000      0.0000    256.3200    714.6858      1.0000      0.1457      0.9500      0.5000      0.9500      0.5000      0.0100           0
DSOLMap_785     C                  2000.0000      0.0000    188.8390    605.6492      1.0000      7.3234      0.9500      0.5000      0.9500      0.5000      0.0100           0
DSOLMap_785     C                  2000.0000      0.0000    188.8390    605.6492      1.0000      0.1533      0.9500      0.5000      0.9500      0.5000      0.0100           0
DSOLMap_785     C                  2000.0000      0.0000    188.8390    605.6492      1.0000      0.7365      0.9500      0.5000      0.9500      0.5000      0.0100           0
DSOLMap_1365    C                  2000.0000      0.0000    317.3450    705.9532      1.0000      5.0061      0.9500      0.5000      0.9500      0.5000      0.0100           0
DSOLMap_1361    C                  2000.0000      0.0000    303.2100    663.0123      1.0000      5.0283      0.9500      0.5000      0.9500      0.5000      0.0100           0
DSOLMap_942     C                  2000.0000      0.0000    301.6450    628.7346      1.0000     10.6479      0.9500      0.5000      0.9500      0.5000      0.0100           0
DSOLMap_1413    C                  2000.0000      0.0000    386.4500    795.2902      1.0000      0.1429      0.9500      0.5000      0.9500      0.5000      0.0100           0
DSOLMap_1413    C                  2000.0000      0.0000    386.4500    795.2902      1.0000      0.5771      0.9500      0.5000      0.9500      0.5000      0.0100           0
DSOLMap_1413    C                  2000.0000      0.0000    386.4500    795.2902      1.0000      2.6174      0.9500      0.5000      0.9500      0.5000      0.0100           0
DSOLMap_1410    C                  2000.0000      0.0000    281.4650    580.7205      1.0000      4.9390      0.9500      0.5000      0.9500      0.5000      0.0100           0
DSOLMap_1410    C                  2000.0000      0.0000    281.4650    580.7205      1.0000      0.1755      0.9500      0.5000      0.9500      0.5000      0.0100           0
DSOLMap_1410    C                  2000.0000      0.0000    281.4650    580.7205      1.0000      0.7114      0.9500      0.5000      0.9500      0.5000      0.0100           0
DSOLMap_1449    C                  2000.0000      0.0000    367.6800    770.4971      1.0000      1.4072      0.9500      0.5000      0.9500      0.5000      0.0100           0
DSOLMap_1449    C                  2000.0000      0.0000    367.6800    770.4971      1.0000      0.7163      0.9500      0.5000      0.9500      0.5000      0.0100           0
DSOLMap_1449    C                  2000.0000      0.0000    367.6800    770.4971      1.0000      0.0961      0.9500      0.5000      0.9500      0.5000      0.0100           0
DSOLMap_1413    C                  2000.0000      0.0000    386.4500    795.2902      1.0000      0.5429      0.9500      0.5000      0.9500      0.5000      0.0100           0
DSOLMap_1413    C                  2000.0000      0.0000    386.4500    795.2902      1.0000      4.9900      0.9500      0.5000      0.9500      0.5000      0.0100           0
DSOLMap_1413    C                  2000.0000      0.0000    386.4500    795.2902      1.0000      0.1350      0.9500      0.5000      0.9500      0.5000      0.0100           0
DSOLMap_1410    C                  2000.0000      0.0000    281.4650    580.7205      1.0000      8.1636      0.9500      0.5000      0.9500      0.5000      0.0100           0
DSOLMap_1410    C                  2000.0000      0.0000    281.4650    580.7205      1.0000      0.5532      0.9500      0.5000      0.9500      0.5000      0.0100           0
DSOLMap_1410    C                  2000.0000      0.0000    281.4650    580.7205      1.0000      0.1218      0.9500      0.5000      0.9500      0.5000      0.0100           0
DSOLMap_1881    B                  2000.0000      0.0000    274.2850    716.2769      1.0000      4.2312      0.9500      0.5000      0.9500      0.9000      0.0100           0
DSOLMap_1881    B                  2000.0000      0.0000    274.2850    716.2769      1.0000      0.7230      0.9500      0.5000      0.9500      0.9000      0.0100           0
DSOLMap_1881    B                  2000.0000      0.0000    274.2850    716.2769      1.0000      0.0650      0.9500      0.5000      0.9500      0.9000      0.0100           0
DSOLMap_1877    B                  2000.0000      0.0000    165.4070    630.8068      1.0000      7.1377      0.9500      0.5000      0.9500      0.9000      0.0100           0
DSOLMap_1877    B                  2000.0000      0.0000    165.4070    630.8068      1.0000      0.5953      0.9500      0.5000      0.9500      0.9000      0.0100           0
DSOLMap_1877    B                  2000.0000      0.0000    165.4070    630.8068      1.0000      0.1004      0.9500      0.5000      0.9500      0.9000      0.0100           0
DSOLMap_1845    C                  2000.0000      0.0000    273.2450    738.6061      1.0000      4.0960      0.9500      0.5000      0.9500      0.5000      0.0100           0
DSOLMap_1845    C                  2000.0000      0.0000    273.2450    738.6061      1.0000      0.5570      0.9500      0.5000      0.9500      0.5000      0.0100           0
DSOLMap_1874    B                  2000.0000      0.0000    247.4650    666.3545      1.0000      3.3354      0.9500      0.5000      0.9500      0.9000      0.0100           0
DSOLMap_1793    C                  2000.0000      0.0000    146.8300    592.7676      1.0000      7.8968      0.9500      0.5000      0.9500      0.5000      0.0100           0
DSOLMap_1793    C                  2000.0000      0.0000    146.8300    592.7676      1.0000      0.7342      0.9500      0.5000      0.9500      0.5000      0.0100           0
DSOLMap_1793    C                  2000.0000      0.0000    146.8300    592.7676      1.0000      0.0650      0.9500      0.5000      0.9500      0.5000      0.0100           0
DSOLMap_1409    C                  2000.0000      0.0000    291.1800    665.2479      1.0000      7.9214      0.9500      0.5000      0.9500      0.5000      0.0100           0
DSOLMap_1409    C                  2000.0000      0.0000    291.1800    665.2479      1.0000      0.0936      0.9500      0.5000      0.9500      0.5000      0.0100           0
DSOLMap_1409    C                  2000.0000      0.0000    291.1800    665.2479      1.0000      0.6412      0.9500      0.5000      0.9500      0.5000      0.0100           0
DSOLMap_1884    B                  2000.0000      0.0000    239.7100    767.6328      1.0000      5.6622      0.9500      0.5000      0.9500      0.9000      0.0100           0
DSOLMap_1884    B                  2000.0000      0.0000    239.7100    767.6328      1.0000      0.0973      0.9500      0.5000      0.9500      0.9000      0.0100           0
[...]
DSOLMap_1413    C                  2000.0000      0.0000    386.4500    795.2902      0.7500      4.2167      0.9500      0.5000      0.9500      0.5000      0.0100           0
DSOLMap_1413    C                  2000.0000      0.0000    386.4500    795.2902      0.7500      0.0650      0.9500      0.5000      0.9500      0.5000      0.0100           0
DSOLMap_1410    C                  2000.0000      0.0000    281.4650    580.7205      0.7500      4.9664      0.9500      0.5000      0.9500      0.5000      0.0100           0
DSOLMap_1410    C                  2000.0000      0.0000    281.4650    580.7205      0.7500      0.9077      0.9500      0.5000      0.9500      0.5000      0.0100           0
DSOLMap_1410    C                  2000.0000      0.0000    281.4650    580.7205      1.0000     10.9817      0.9500      0.5000      0.9500      0.5000      0.0100           0
DSOLMap_1410    C                  2000.0000      0.0000    281.4650    580.7205      1.0000      0.5364      0.9500      0.5000      0.9500      0.5000      0.0100           0
DSOLMap_1410    C                  2000.0000      0.0000    281.4650    580.7205      1.0000      0.0961      0.9500      0.5000      0.9500      0.5000      0.0100           0
DSOLMap_1413    C                  2000.0000      0.0000    386.4500    795.2902      1.0000     11.2392      0.9500      0.5000      0.9500      0.5000      0.0100           0
DSOLMap_1413    C                  2000.0000      0.0000    386.4500    795.2902      1.0000      0.5718      0.9500      0.5000      0.9500      0.5000      0.0100           0
DSOLMap_1413    C                  2000.0000      0.0000    386.4500    795.2902      1.0000      0.0843      0.9500      0.5000      0.9500      0.5000      0.0100           0
DSOLMap_1374    C                  2000.0000      0.0000    301.9150    592.3920      1.0000     11.0415      0.9500      0.5000      0.9500      0.5000      0.0100           0
DSOLMap_1374    C                  2000.0000      0.0000    301.9150    592.3920      1.0000      0.2183      0.9500      0.5000      0.9500      0.5000      0.0100           0
DSOLMap_1374    C                  2000.0000      0.0000    301.9150    592.3920      1.0000      0.6438      0.9500      0.5000      0.9500      0.5000      0.0100           0
DSOLMap_942     C                  2000.0000      0.0000    301.6450    628.7346      1.0000     12.0278      0.9500      0.5000      0.9500      0.5000      0.0100           0
DSOLMap_942     C                  2000.0000      0.0000    301.6450    628.7346      1.0000      0.0958      0.9500      0.5000      0.9500      0.5000      0.0100           0
DSOLMap_942     C                  2000.0000      0.0000    301.6450    628.7346      1.0000      0.5903      0.9500      0.5000      0.9500      0.5000      0.0100           0
DSOLMap_942     C                  2000.0000      0.0000    301.6450    628.7346      1.0000      9.2551      0.9500      0.5000      0.9500      0.5000      0.0100           0
DSOLMap_1374    C                  2000.0000      0.0000    301.9150    592.3920      1.0000      2.9362      0.9500      0.5000      0.9500      0.5000      0.0100           0
DSOLMap_1374    C                  2000.0000      0.0000    301.9150    592.3920      1.0000      0.8914      0.9500      0.5000      0.9500      0.5000      0.0100           0
DSOLMap_1413    C                  2000.0000      0.0000    386.4500    795.2902      1.0000      6.2092      0.9500      0.5000      0.9500      0.5000      0.0100           0
DSOLMap_1413    C                  2000.0000      0.0000    386.4500    795.2902      1.0000      0.7023      0.9500      0.5000      0.9500      0.5000      0.0100           0
DSOLMap_1410    C                  2000.0000      0.0000    281.4650    580.7205      1.0000      0.6424      0.9500      0.5000      0.9500      0.5000      0.0100           0
DSOLMap_1410    C                  2000.0000      0.0000    281.4650    580.7205      1.0000      6.2631      0.9500      0.5000      0.9500      0.5000      0.0100           0
DSOLMap_1410    C                  2000.0000      0.0000    281.4650    580.7205      0.7500      6.3803      0.9500      0.5000      0.9500      0.5000      0.0100           0
DSOLMap_1410    C                  2000.0000      0.0000    281.4650    580.7205      0.7500      0.5565      0.9500      0.5000      0.9500      0.5000      0.0100           0
DSOLMap_1410    C                  2000.0000      0.0000    281.4650    580.7205      0.7500      0.2651      0.9500      0.5000      0.9500      0.5000      0.0100           0
DSOLMap_1413    C                  2000.0000      0.0000    386.4500    795.2902      0.7500      3.9493      0.9500      0.5000      0.9500      0.5000      0.0100           0
DSOLMap_1413    C                  2000.0000      0.0000    386.4500    795.2902      0.7500      0.7722      0.9500      0.5000      0.9500      0.5000      0.0100           0
DSOLMap_1410    C                  2000.0000      0.0000    281.4650    580.7205      1.0000     10.2769      0.9500      0.5000      0.9500      0.5000      0.0100           0
DSOLMap_1413    C                  2000.0000      0.0000    386.4500    795.2902      1.0000      4.9776      0.9500      0.5000      0.9500      0.5000      0.0100           0
DSOLMap_1374    C                  2000.0000      0.0000    301.9150    592.3920      1.0000     10.0577      0.9500      0.5000      0.9500      0.5000      0.0100           0
DSOLMap_942     C                  2000.0000      0.0000    301.6450    628.7346      1.0000     11.6074      0.9500      0.5000      0.9500      0.5000      0.0100           0
DSOLMap_1410    C                  2000.0000      0.0000    281.4650    580.7205      1.0000      9.6426      0.9500      0.5000      0.9500      0.5000      0.0100           0
DSOLMap_1410    C                  2000.0000      0.0000    281.4650    580.7205      1.0000      0.0859      0.9500      0.5000      0.9500      0.5000      0.0100           0
DSOLMap_1410    C                  2000.0000      0.0000    281.4650    580.7205      1.0000      0.6451      0.9500      0.5000      0.9500      0.5000      0.0100           0
DSOLMap_1374    C                  2000.0000      0.0000    301.9150    592.3920      1.0000      7.5857      0.9500      0.5000      0.9500      0.5000      0.0100           0
DSOLMap_1374    C                  2000.0000      0.0000    301.9150    592.3920      1.0000      0.4993      0.9500      0.5000      0.9500      0.5000      0.0100           0
DSOLMap_1374    C                  2000.0000      0.0000    301.9150    592.3920      1.0000      0.0650      0.9500      0.5000      0.9500      0.5000      0.0100           0
DSOLMap_1413    C                  2000.0000      0.0000    386.4500    795.2902      1.0000     11.7834      0.9500      0.5000      0.9500      0.5000      0.0100           0
DSOLMap_1413    C                  2000.0000      0.0000    386.4500    795.2902      1.0000      6.5353      0.9500      0.5000      0.9500      0.5000      0.0100           0
DSOLMap_1413    C                  2000.0000      0.0000    386.4500    795.2902      1.0000      0.7139      0.9500      0.5000      0.9500      0.5000      0.0100           0
DSOLMap_1413    C                  2000.0000      0.0000    386.4500    795.2902      1.0000      0.1494      0.9500      0.5000      0.9500      0.5000      0.0100           0
DSOLMap_1410    C                  2000.0000      0.0000    281.4650    580.7205      1.0000      4.9184      0.9500      0.5000      0.9500      0.5000      0.0100           0
DSOLMap_1410    C                  2000.0000      0.0000    281.4650    580.7205      1.0000      0.7441      0.9500      0.5000      0.9500      0.5000      0.0100           0
DSOLMap_942     C                  2000.0000      0.0000    301.6450    628.7346      1.0000      7.7982      0.9500      0.5000      0.9500      0.5000      0.0100           0
DSOLMap_1374    C                  2000.0000      0.0000    301.9150    592.3920      1.0000      4.5520      0.9500      0.5000      0.9500      0.5000      0.0100           0
DSOLMap_1374    C                  2000.0000      0.0000    301.9150    592.3920      1.0000      0.7189      0.9500      0.5000      0.9500      0.5000      0.0100           0
DSOLMap_1413    C                  2000.0000      0.0000    386.4500    795.2902      1.0000     11.2737      0.9500      0.5000      0.9500      0.5000      0.0100           0
DSOLMap_1413    C                  2000.0000      0.0000    386.4500    795.2902      1.0000      0.6556      0.9500      0.5000      0.9500      0.5000      0.0100           0
DSOLMap_1413    C                  2000.0000      0.0000    386.4500    795.2902      1.0000      0.1126      0.9500      0.5000      0.9500      0.5000      0.0100           0
DSOLMap_1410    C                  2000.0000      0.0000    281.4650    580.7205      1.0000     12.2620      0.9500      0.5000      0.9500      0.5000      0.0100           0
DSOLMap_1410    C                  2000.0000      0.0000    281.4650    580.7205      1.0000      0.5508      0.9500      0.5000      0.9500      0.5000      0.0100           0
DSOLMap_1410    C                  2000.0000      0.0000    281.4650    580.7205      1.0000      0.0866      0.9500      0.5000      0.9500      0.5000      0.0100           0
DSOLMap_1374    C                  2000.0000      0.0000    301.9150    592.3920      1.0000     11.2310      0.9500      0.5000      0.9500      0.5000      0.0100           0
DSOLMap_1374    C                  2000.0000      0.0000    301.9150    592.3920      1.0000      0.0720      0.9500      0.5000      0.9500      0.5000      0.0100           0
DSOLMap_1374    C                  2000.0000      0.0000    301.9150    592.3920      1.0000      0.6839      0.9500      0.5000      0.9500      0.5000      0.0100           0
DSOLMap_942     C                  2000.0000      0.0000    301.6450    628.7346      1.0000     13.9940      0.9500      0.5000      0.9500      0.5000      0.0100           0
DSOLMap_942     C                  2000.0000      0.0000    301.6450    628.7346      1.0000      0.7226      0.9500      0.5000      0.9500      0.5000      0.0100           0
DSOLMap_942     C                  2000.0000      0.0000    301.6450    628.7346      1.0000      0.1180      0.9500      0.5000      0.9500      0.5000      0.0100           0
DSOLMap_1413    C                  2000.0000      0.0000    386.4500    795.2902      1.0000      9.5943      0.9500      0.5000      0.9500      0.5000      0.0100           0
DSOLMap_1410    C                  2000.0000      0.0000    281.4650    580.7205      1.0000     10.4927      0.9500      0.5000      0.9500      0.5000      0.0100           0
DSOLMap_1410    C                  2000.0000      0.0000    281.4650    580.7205      0.7500      5.4060      0.9500      0.5000      0.9500      0.5000      0.0100           0
DSOLMap_1374    C                  2000.0000      0.0000    301.9150    592.3920      0.7500      8.3051      0.9500      0.5000      0.9500      0.5000      0.0100           0
DSOLMap_942     C                  2000.0000      0.0000    301.6450    628.7346      0.7500      8.6819      0.9500      0.5000      0.9500      0.5000      0.0100           0
DSOLMap_1413    C                  2000.0000      0.0000    386.4500    795.2902      1.0000      8.0590      0.9500      0.5000      0.9500      0.5000      0.0100           0
DSOLMap_1413    C                  2000.0000      0.0000    386.4500    795.2902      1.0000      0.6837      0.9500      0.5000      0.9500      0.5000      0.0100           0
DSOLMap_1410    C                  2000.0000      0.0000    281.4650    580.7205      1.0000      8.0524      0.9500      0.5000      0.9500      0.5000      0.0100           0
DSOLMap_1410    C                  2000.0000      0.0000    281.4650    580.7205      1.0000      0.7108      0.9500      0.5000      0.9500      0.5000      0.0100           0
DSOLMap_1413    C                  2000.0000      0.0000    386.4500    795.2902      1.0000      9.7061      0.9500      0.5000      0.9500      0.5000      0.0100           0
DSOLMap_1413    C                  2000.0000      0.0000    386.4500    795.2902      1.0000      0.6870      0.9500      0.5000      0.9500      0.5000      0.0100           0
DSOLMap_1413    C                  2000.0000      0.0000    386.4500    795.2902      1.0000      0.0650      0.9500      0.5000      0.9500      0.5000      0.0100           0
DSOLMap_1410    C                  2000.0000      0.0000    281.4650    580.7205      1.0000      8.6822      0.9500      0.5000      0.9500      0.5000      0.0100           0
DSOLMap_1410    C                  2000.0000      0.0000    281.4650    580.7205      1.0000      0.5692      0.9500      0.5000      0.9500      0.5000      0.0100           0
DSOLMap_1410    C                  2000.0000      0.0000    281.4650    580.7205      1.0000      0.1052      0.9500      0.5000      0.9500      0.5000      0.0100           0
DSOLMap_1881    B                  2000.0000      0.0000    274.2850    716.2769      1.0000      8.2723      0.9500      0.5000      0.9500      0.9000      0.0100           0
DSOLMap_1884    B                  2000.0000      0.0000    239.7100    767.6328      1.0000     10.2538      0.9500      0.5000      0.9500      0.9000      0.0100           0
DSOLMap_1374    C                  2000.0000      0.0000    301.9150    592.3920      1.0000     12.2221      0.9500      0.5000      0.9500      0.5000      0.0100           0
DSOLMap_1374    C                  2000.0000      0.0000    301.9150    592.3920      1.0000      0.1070      0.9500      0.5000      0.9500      0.5000      0.0100           0
DSOLMap_1374    C                  2000.0000      0.0000    301.9150    592.3920      1.0000      0.7876      0.9500      0.5000      0.9500      0.5000      0.0100           0
DSOLMap_1881    B                  2000.0000      0.0000    274.2850    716.2769      1.0000      8.0280      0.9500      0.5000      0.9500      0.9000      0.0100           0
DSOLMap_1884    B                  2000.0000      0.0000    239.7100    767.6328      1.0000     10.7484      0.9500      0.5000      0.9500      0.9000      0.0100           0
DSOLMap_1413    C                  2000.0000      0.0000    386.4500    795.2902      1.0000      8.6253      0.9500      0.5000      0.9500      0.5000      0.0100           0
DSOLMap_1410    C                  2000.0000      0.0000    281.4650    580.7205      1.0000      7.6365      0.9500      0.5000      0.9500      0.5000      0.0100           0
DSOLMap_1413    C                  2000.0000      0.0000    386.4500    795.2902      1.0000     10.4512      0.9500      0.5000      0.9500      0.5000      0.0100           0
DSOLMap_1413    C                  2000.0000      0.0000    386.4500    795.2902      1.0000      0.7358      0.9500      0.5000      0.9500      0.5000      0.0100           0
DSOLMap_1413    C                  2000.0000      0.0000    386.4500    795.2902      1.0000      0.2251      0.9500      0.5000      0.9500      0.5000      0.0100           0
DSOLMap_1410    C                  2000.0000      0.0000    281.4650    580.7205      1.0000     10.9766      0.9500      0.5000      0.9500      0.5000      0.0100           0
DSOLMap_1410    C                  2000.0000      0.0000    281.4650    580.7205      1.0000      0.6193      0.9500      0.5000      0.9500      0.5000      0.0100           0
DSOLMap_1410    C                  2000.0000      0.0000    281.4650    580.7205      1.0000      0.0954      0.9500      0.5000      0.9500      0.5000      0.0100           0
DSOLMap_1374    C                  2000.0000      0.0000    301.9150    592.3920      1.0000     14.9677      0.9500      0.5000      0.9500      0.5000      0.0100           0
DSOLMap_1374    C                  2000.0000      0.0000    301.9150    592.3920      1.0000      0.0849      0.9500      0.5000      0.9500      0.5000      0.0100           0
DSOLMap_1374    C                  2000.0000      0.0000    301.9150    592.3920      1.0000      0.6194      0.9500      0.5000      0.9500      0.5000      0.0100           0
DSOLMap_1881    B                  2000.0000      0.0000    274.2850    716.2769      1.0000     14.0652      0.9500      0.5000      0.9500      0.9000      0.0100           0
DSOLMap_1413    C                  2000.0000      0.0000    386.4500    795.2902      1.0000      9.8404      0.9500      0.5000      0.9500      0.5000      0.0100           0
DSOLMap_1881    B                  2000.0000      0.0000    274.2850    716.2769      1.0000     12.4959      0.9500      0.5000      0.9500      0.9000      0.0100           0
DSOLMap_1413    C                  2000.0000      0.0000    386.4500    795.2902      1.0000     12.5111      0.9500      0.5000      0.9500      0.5000      0.0100           0
DSOLMap_1410    C                  2000.0000      0.0000    281.4650    580.7205      1.0000     15.5368      0.9500      0.5000      0.9500      0.5000      0.0100           0
DSOLMap_1884    B                  2000.0000      0.0000    239.7100    767.6328      1.0000      7.4709      0.9500      0.5000      0.9500      0.9000      0.0100           0
DSOLMap_1884    B                  2000.0000      0.0000    239.7100    767.6328      1.0000      0.6569      0.9500      0.5000      0.9500      0.9000      0.0100           0
DSOLMap_1884    B                  2000.0000      0.0000    239.7100    767.6328      1.0000      0.0990      0.9500      0.5000      0.9500      0.9000      0.0100           0
DSOLMap_1413    C                  2000.0000      0.0000    386.4500    795.2902      1.0000     10.8255      0.9500      0.5000      0.9500      0.5000      0.0100           0
DSOLMap_1413    C                  2000.0000      0.0000    386.4500    795.2902      1.0000      0.5777      0.9500      0.5000      0.9500      0.5000      0.0100           0
DSOLMap_1413    C                  2000.0000      0.0000    386.4500    795.2902      1.0000      0.1584      0.9500      0.5000      0.9500      0.5000      0.0100           0
DSOLMap_1410    C                  2000.0000      0.0000    281.4650    580.7205      1.0000      9.9496      0.9500      0.5000      0.9500      0.5000      0.0100           0
DSOLMap_1410    C                  2000.0000      0.0000    281.4650    580.7205      1.0000      0.0650      0.9500      0.5000      0.9500      0.5000      0.0100           0
DSOLMap_1845    C                  2000.0000      0.0000    273.2450    738.6061      1.0000     14.9106      0.9500      0.5000      0.9500      0.5000      0.0100           0
DSOLMap_1881    B                  2000.0000      0.0000    274.2850    716.2769      1.0000     12.3919      0.9500      0.5000      0.9500      0.9000      0.0100           0
DSOLMap_1416    C                  2000.0000      0.0000    394.4000    871.2263      1.0000     15.9241      0.9500      0.5000      0.9500      0.5000      0.0100           0
DSOLMap_1413    C                  2000.0000      0.0000    386.4500    795.2902      1.0000     15.6544      0.9500      0.5000      0.9500      0.5000      0.0100           0
DSOLMap_1845    C                  2000.0000      0.0000    273.2450    738.6061      1.0000     15.3468      0.9500      0.5000      0.9500      0.5000      0.0100           0
DSOLMap_1881    B                  2000.0000      0.0000    274.2850    716.2769      1.0000     18.3006      0.9500      0.5000      0.9500      0.9000      0.0100           0
DSOLMap_1884    B                  2000.0000      0.0000    239.7100    767.6328      1.0000     16.0859      0.9500      0.5000      0.9500      0.9000      0.0100           0
