print.prt: written by SWAT+ editor v2.3.3 on 2023-12-13 20:04 for SWAT+ rev.60.5.7
nyskip      day_start  yrc_start  day_end   yrc_end   interval  
1           1         2017         365         2017         1         
aa_int_cnt  
0           
csvout        dbout         cdfout        
n             n             n             
crop_yld      mgtout        hydcon        fdcout        
b             n             n             n             
objects                  daily       monthly        yearly         avann  
basin_wb                     n             y             y             y  
basin_nb                     n             n             y             y  
basin_ls                     n             n             y             y  
basin_pw                     n             n             y             y  
basin_aqu                    n             n             y             y  
basin_res                    n             n             y             y  
basin_cha                    n             n             y             y  
basin_sd_cha                 n             y             y             y  
basin_psc                    n             n             y             y  
region_wb                    n             n             y             y  
region_nb                    n             n             y             y  
region_ls                    n             n             y             y  
region_pw                    n             n             y             y  
region_aqu                   n             n             y             y  
region_res                   n             n             y             y  
region_sd_cha                n             n             y             y  
region_psc                   n             n             y             y  
water_allo                   n             n             y             y  
lsunit_wb                    n             n             y             y  
lsunit_nb                    n             n             y             y  
lsunit_ls                    n             n             y             y  
lsunit_pw                    n             n             y             y  
hru_wb                       n             y             y             y  
hru_nb                       n             y             y             y  
hru_ls                       n             y             y             y  
hru_pw                       n             y             y             y  
hru-lte_wb                   n             n             y             y  
hru-lte_nb                   n             n             y             y  
hru-lte_ls                   n             n             y             y  
hru-lte_pw                   n             n             y             y  
channel                      n             n             y             y  
channel_sd                   n             y             y             y  
aquifer                      n             n             y             y  
reservoir                    n             n             y             y  
recall                       n             n             y             y  
hyd                          n             n             y             y  
ru                           n             n             y             y  
pest                         n             n             y             y  
