                   SWAT+               
             Revision 60.5.6          
      Soil & Water Assessment Tool    
               PC Version             
    Program reading . . . executing


  Date of Sim   2/ 5/2024 Time  20:54:18
 reading from precipitation file         Time  20:54:18
 reading from temperature file           Time  20:54:18
 reading from solar radiation file       Time  20:54:18
 reading from relative humidity file     Time  20:54:18
 reading from wind file                  Time  20:54:18
 reading from wgn file                   Time  20:54:18
 reading from wx station file            Time  20:54:18
  Original Simulation        1   1  2010 Yr    1 of   14 Time  20:54:18
  Original Simulation        1   2  2010 Yr    1 of   14 Time  20:54:18
  Original Simulation        1   3  2010 Yr    1 of   14 Time  20:54:18
  Original Simulation        1   4  2010 Yr    1 of   14 Time  20:54:18
  Original Simulation        1   5  2010 Yr    1 of   14 Time  20:54:18
  Original Simulation        1   6  2010 Yr    1 of   14 Time  20:54:18
  Original Simulation        1   7  2010 Yr    1 of   14 Time  20:54:19
  Original Simulation        1   8  2010 Yr    1 of   14 Time  20:54:19
  Original Simulation        1   9  2010 Yr    1 of   14 Time  20:54:19
  Original Simulation        1  10  2010 Yr    1 of   14 Time  20:54:19
  Original Simulation        1  11  2010 Yr    1 of   14 Time  20:54:19
  Original Simulation        1  12  2010 Yr    1 of   14 Time  20:54:19
  Original Simulation        1  13  2010 Yr    1 of   14 Time  20:54:19
  Original Simulation        1  14  2010 Yr    1 of   14 Time  20:54:19
  Original Simulation        1  15  2010 Yr    1 of   14 Time  20:54:19
  Original Simulation        1  16  2010 Yr    1 of   14 Time  20:54:19
  Original Simulation        1  17  2010 Yr    1 of   14 Time  20:54:19
  Original Simulation        1  18  2010 Yr    1 of   14 Time  20:54:19
  Original Simulation        1  19  2010 Yr    1 of   14 Time  20:54:20
  Original Simulation        1  20  2010 Yr    1 of   14 Time  20:54:20
  Original Simulation        1  21  2010 Yr    1 of   14 Time  20:54:20
  Original Simulation        1  22  2010 Yr    1 of   14 Time  20:54:20
  Original Simulation        1  23  2010 Yr    1 of   14 Time  20:54:20
  Original Simulation        1  24  2010 Yr    1 of   14 Time  20:54:20
  Original Simulation        1  25  2010 Yr    1 of   14 Time  20:54:20
  Original Simulation        1  26  2010 Yr    1 of   14 Time  20:54:20
  Original Simulation        1  27  2010 Yr    1 of   14 Time  20:54:20
  Original Simulation        1  28  2010 Yr    1 of   14 Time  20:54:20
  Original Simulation        1  29  2010 Yr    1 of   14 Time  20:54:20
  Original Simulation        1  30  2010 Yr    1 of   14 Time  20:54:20
  Original Simulation        1  31  2010 Yr    1 of   14 Time  20:54:21
  Original Simulation        2   1  2010 Yr    1 of   14 Time  20:54:21
  Original Simulation        2   2  2010 Yr    1 of   14 Time  20:54:21
  Original Simulation        2   3  2010 Yr    1 of   14 Time  20:54:21
  Original Simulation        2   4  2010 Yr    1 of   14 Time  20:54:21
  Original Simulation        2   5  2010 Yr    1 of   14 Time  20:54:21
  Original Simulation        2   6  2010 Yr    1 of   14 Time  20:54:21
  Original Simulation        2   7  2010 Yr    1 of   14 Time  20:54:21
  Original Simulation        2   8  2010 Yr    1 of   14 Time  20:54:21
  Original Simulation        2   9  2010 Yr    1 of   14 Time  20:54:21
  Original Simulation        2  10  2010 Yr    1 of   14 Time  20:54:21
  Original Simulation        2  11  2010 Yr    1 of   14 Time  20:54:21
  Original Simulation        2  12  2010 Yr    1 of   14 Time  20:54:22
  Original Simulation        2  13  2010 Yr    1 of   14 Time  20:54:22
  Original Simulation        2  14  2010 Yr    1 of   14 Time  20:54:22
  Original Simulation        2  15  2010 Yr    1 of   14 Time  20:54:22
  Original Simulation        2  16  2010 Yr    1 of   14 Time  20:54:22
  Original Simulation        2  17  2010 Yr    1 of   14 Time  20:54:22
  Original Simulation        2  18  2010 Yr    1 of   14 Time  20:54:22
  Original Simulation        2  19  2010 Yr    1 of   14 Time  20:54:22
  Original Simulation        2  20  2010 Yr    1 of   14 Time  20:54:22
  Original Simulation        2  21  2010 Yr    1 of   14 Time  20:54:22
  Original Simulation        2  22  2010 Yr    1 of   14 Time  20:54:22
  Original Simulation        2  23  2010 Yr    1 of   14 Time  20:54:22
  Original Simulation        2  24  2010 Yr    1 of   14 Time  20:54:23
  Original Simulation        2  25  2010 Yr    1 of   14 Time  20:54:23
  Original Simulation        2  26  2010 Yr    1 of   14 Time  20:54:23
  Original Simulation        2  27  2010 Yr    1 of   14 Time  20:54:23
  Original Simulation        2  28  2010 Yr    1 of   14 Time  20:54:23
  Original Simulation        3   1  2010 Yr    1 of   14 Time  20:54:23
  Original Simulation        3   2  2010 Yr    1 of   14 Time  20:54:23
  Original Simulation        3   3  2010 Yr    1 of   14 Time  20:54:23
  Original Simulation        3   4  2010 Yr    1 of   14 Time  20:54:23
  Original Simulation        3   5  2010 Yr    1 of   14 Time  20:54:23
  Original Simulation        3   6  2010 Yr    1 of   14 Time  20:54:23
  Original Simulation        3   7  2010 Yr    1 of   14 Time  20:54:23
  Original Simulation        3   8  2010 Yr    1 of   14 Time  20:54:24
  Original Simulation        3   9  2010 Yr    1 of   14 Time  20:54:24
  Original Simulation        3  10  2010 Yr    1 of   14 Time  20:54:24
  Original Simulation        3  11  2010 Yr    1 of   14 Time  20:54:24
  Original Simulation        3  12  2010 Yr    1 of   14 Time  20:54:24
  Original Simulation        3  13  2010 Yr    1 of   14 Time  20:54:24
  Original Simulation        3  14  2010 Yr    1 of   14 Time  20:54:24
  Original Simulation        3  15  2010 Yr    1 of   14 Time  20:54:24
  Original Simulation        3  16  2010 Yr    1 of   14 Time  20:54:24
  Original Simulation        3  17  2010 Yr    1 of   14 Time  20:54:24
  Original Simulation        3  18  2010 Yr    1 of   14 Time  20:54:24
  Original Simulation        3  19  2010 Yr    1 of   14 Time  20:54:25
  Original Simulation        3  20  2010 Yr    1 of   14 Time  20:54:25
  Original Simulation        3  21  2010 Yr    1 of   14 Time  20:54:25
  Original Simulation        3  22  2010 Yr    1 of   14 Time  20:54:25
  Original Simulation        3  23  2010 Yr    1 of   14 Time  20:54:25
  Original Simulation        3  24  2010 Yr    1 of   14 Time  20:54:25
  Original Simulation        3  25  2010 Yr    1 of   14 Time  20:54:25
  Original Simulation        3  26  2010 Yr    1 of   14 Time  20:54:25
  Original Simulation        3  27  2010 Yr    1 of   14 Time  20:54:25
  Original Simulation        3  28  2010 Yr    1 of   14 Time  20:54:25
  Original Simulation        3  29  2010 Yr    1 of   14 Time  20:54:25
  Original Simulation        3  30  2010 Yr    1 of   14 Time  20:54:25
  Original Simulation        3  31  2010 Yr    1 of   14 Time  20:54:26
  Original Simulation        4   1  2010 Yr    1 of   14 Time  20:54:26
  Original Simulation        4   2  2010 Yr    1 of   14 Time  20:54:26
  Original Simulation        4   3  2010 Yr    1 of   14 Time  20:54:26
  Original Simulation        4   4  2010 Yr    1 of   14 Time  20:54:26
  Original Simulation        4   5  2010 Yr    1 of   14 Time  20:54:26
  Original Simulation        4   6  2010 Yr    1 of   14 Time  20:54:26
  Original Simulation        4   7  2010 Yr    1 of   14 Time  20:54:26
  Original Simulation        4   8  2010 Yr    1 of   14 Time  20:54:26
  Original Simulation        4   9  2010 Yr    1 of   14 Time  20:54:26
  Original Simulation        4  10  2010 Yr    1 of   14 Time  20:54:26
  Original Simulation        4  11  2010 Yr    1 of   14 Time  20:54:26
  Original Simulation        4  12  2010 Yr    1 of   14 Time  20:54:27
  Original Simulation        4  13  2010 Yr    1 of   14 Time  20:54:27
  Original Simulation        4  14  2010 Yr    1 of   14 Time  20:54:27
  Original Simulation        4  15  2010 Yr    1 of   14 Time  20:54:27
  Original Simulation        4  16  2010 Yr    1 of   14 Time  20:54:27
  Original Simulation        4  17  2010 Yr    1 of   14 Time  20:54:27
  Original Simulation        4  18  2010 Yr    1 of   14 Time  20:54:27
  Original Simulation        4  19  2010 Yr    1 of   14 Time  20:54:27
  Original Simulation        4  20  2010 Yr    1 of   14 Time  20:54:27
  Original Simulation        4  21  2010 Yr    1 of   14 Time  20:54:27
  Original Simulation        4  22  2010 Yr    1 of   14 Time  20:54:27
  Original Simulation        4  23  2010 Yr    1 of   14 Time  20:54:28
  Original Simulation        4  24  2010 Yr    1 of   14 Time  20:54:28
  Original Simulation        4  25  2010 Yr    1 of   14 Time  20:54:28
  Original Simulation        4  26  2010 Yr    1 of   14 Time  20:54:28
  Original Simulation        4  27  2010 Yr    1 of   14 Time  20:54:28
  Original Simulation        4  28  2010 Yr    1 of   14 Time  20:54:28
  Original Simulation        4  29  2010 Yr    1 of   14 Time  20:54:28
  Original Simulation        4  30  2010 Yr    1 of   14 Time  20:54:28
  Original Simulation        5   1  2010 Yr    1 of   14 Time  20:54:28
  Original Simulation        5   2  2010 Yr    1 of   14 Time  20:54:28
  Original Simulation        5   3  2010 Yr    1 of   14 Time  20:54:28
  Original Simulation        5   4  2010 Yr    1 of   14 Time  20:54:28
  Original Simulation        5   5  2010 Yr    1 of   14 Time  20:54:29
  Original Simulation        5   6  2010 Yr    1 of   14 Time  20:54:29
  Original Simulation        5   7  2010 Yr    1 of   14 Time  20:54:29
  Original Simulation        5   8  2010 Yr    1 of   14 Time  20:54:29
  Original Simulation        5   9  2010 Yr    1 of   14 Time  20:54:29
  Original Simulation        5  10  2010 Yr    1 of   14 Time  20:54:29
  Original Simulation        5  11  2010 Yr    1 of   14 Time  20:54:29
  Original Simulation        5  12  2010 Yr    1 of   14 Time  20:54:29
  Original Simulation        5  13  2010 Yr    1 of   14 Time  20:54:29
  Original Simulation        5  14  2010 Yr    1 of   14 Time  20:54:29
  Original Simulation        5  15  2010 Yr    1 of   14 Time  20:54:29
  Original Simulation        5  16  2010 Yr    1 of   14 Time  20:54:30
  Original Simulation        5  17  2010 Yr    1 of   14 Time  20:54:30
  Original Simulation        5  18  2010 Yr    1 of   14 Time  20:54:30
  Original Simulation        5  19  2010 Yr    1 of   14 Time  20:54:30
  Original Simulation        5  20  2010 Yr    1 of   14 Time  20:54:30
  Original Simulation        5  21  2010 Yr    1 of   14 Time  20:54:30
  Original Simulation        5  22  2010 Yr    1 of   14 Time  20:54:30
  Original Simulation        5  23  2010 Yr    1 of   14 Time  20:54:30
  Original Simulation        5  24  2010 Yr    1 of   14 Time  20:54:30
  Original Simulation        5  25  2010 Yr    1 of   14 Time  20:54:30
  Original Simulation        5  26  2010 Yr    1 of   14 Time  20:54:30
  Original Simulation        5  27  2010 Yr    1 of   14 Time  20:54:31
  Original Simulation        5  28  2010 Yr    1 of   14 Time  20:54:31
  Original Simulation        5  29  2010 Yr    1 of   14 Time  20:54:31
  Original Simulation        5  30  2010 Yr    1 of   14 Time  20:54:31
  Original Simulation        5  31  2010 Yr    1 of   14 Time  20:54:31
  Original Simulation        6   1  2010 Yr    1 of   14 Time  20:54:31
  Original Simulation        6   2  2010 Yr    1 of   14 Time  20:54:31
  Original Simulation        6   3  2010 Yr    1 of   14 Time  20:54:31
  Original Simulation        6   4  2010 Yr    1 of   14 Time  20:54:31
  Original Simulation        6   5  2010 Yr    1 of   14 Time  20:54:31
  Original Simulation        6   6  2010 Yr    1 of   14 Time  20:54:31
  Original Simulation        6   7  2010 Yr    1 of   14 Time  20:54:32
  Original Simulation        6   8  2010 Yr    1 of   14 Time  20:54:32
  Original Simulation        6   9  2010 Yr    1 of   14 Time  20:54:32
  Original Simulation        6  10  2010 Yr    1 of   14 Time  20:54:32
  Original Simulation        6  11  2010 Yr    1 of   14 Time  20:54:32
  Original Simulation        6  12  2010 Yr    1 of   14 Time  20:54:32
  Original Simulation        6  13  2010 Yr    1 of   14 Time  20:54:32
  Original Simulation        6  14  2010 Yr    1 of   14 Time  20:54:32
  Original Simulation        6  15  2010 Yr    1 of   14 Time  20:54:32
  Original Simulation        6  16  2010 Yr    1 of   14 Time  20:54:32
  Original Simulation        6  17  2010 Yr    1 of   14 Time  20:54:32
  Original Simulation        6  18  2010 Yr    1 of   14 Time  20:54:32
  Original Simulation        6  19  2010 Yr    1 of   14 Time  20:54:33
  Original Simulation        6  20  2010 Yr    1 of   14 Time  20:54:33
  Original Simulation        6  21  2010 Yr    1 of   14 Time  20:54:33
  Original Simulation        6  22  2010 Yr    1 of   14 Time  20:54:33
  Original Simulation        6  23  2010 Yr    1 of   14 Time  20:54:33
  Original Simulation        6  24  2010 Yr    1 of   14 Time  20:54:33
  Original Simulation        6  25  2010 Yr    1 of   14 Time  20:54:33
  Original Simulation        6  26  2010 Yr    1 of   14 Time  20:54:33
  Original Simulation        6  27  2010 Yr    1 of   14 Time  20:54:33
  Original Simulation        6  28  2010 Yr    1 of   14 Time  20:54:33
  Original Simulation        6  29  2010 Yr    1 of   14 Time  20:54:33
  Original Simulation        6  30  2010 Yr    1 of   14 Time  20:54:34
  Original Simulation        7   1  2010 Yr    1 of   14 Time  20:54:34
  Original Simulation        7   2  2010 Yr    1 of   14 Time  20:54:34
  Original Simulation        7   3  2010 Yr    1 of   14 Time  20:54:34
  Original Simulation        7   4  2010 Yr    1 of   14 Time  20:54:34
  Original Simulation        7   5  2010 Yr    1 of   14 Time  20:54:34
  Original Simulation        7   6  2010 Yr    1 of   14 Time  20:54:34
  Original Simulation        7   7  2010 Yr    1 of   14 Time  20:54:34
  Original Simulation        7   8  2010 Yr    1 of   14 Time  20:54:34
  Original Simulation        7   9  2010 Yr    1 of   14 Time  20:54:34
  Original Simulation        7  10  2010 Yr    1 of   14 Time  20:54:34
  Original Simulation        7  11  2010 Yr    1 of   14 Time  20:54:35
  Original Simulation        7  12  2010 Yr    1 of   14 Time  20:54:35
  Original Simulation        7  13  2010 Yr    1 of   14 Time  20:54:35
  Original Simulation        7  14  2010 Yr    1 of   14 Time  20:54:35
  Original Simulation        7  15  2010 Yr    1 of   14 Time  20:54:35
  Original Simulation        7  16  2010 Yr    1 of   14 Time  20:54:35
  Original Simulation        7  17  2010 Yr    1 of   14 Time  20:54:35
  Original Simulation        7  18  2010 Yr    1 of   14 Time  20:54:35
  Original Simulation        7  19  2010 Yr    1 of   14 Time  20:54:35
  Original Simulation        7  20  2010 Yr    1 of   14 Time  20:54:35
  Original Simulation        7  21  2010 Yr    1 of   14 Time  20:54:35
  Original Simulation        7  22  2010 Yr    1 of   14 Time  20:54:36
  Original Simulation        7  23  2010 Yr    1 of   14 Time  20:54:36
  Original Simulation        7  24  2010 Yr    1 of   14 Time  20:54:36
  Original Simulation        7  25  2010 Yr    1 of   14 Time  20:54:36
  Original Simulation        7  26  2010 Yr    1 of   14 Time  20:54:36
  Original Simulation        7  27  2010 Yr    1 of   14 Time  20:54:36
  Original Simulation        7  28  2010 Yr    1 of   14 Time  20:54:36
  Original Simulation        7  29  2010 Yr    1 of   14 Time  20:54:36
  Original Simulation        7  30  2010 Yr    1 of   14 Time  20:54:36
  Original Simulation        7  31  2010 Yr    1 of   14 Time  20:54:36
  Original Simulation        8   1  2010 Yr    1 of   14 Time  20:54:36
  Original Simulation        8   2  2010 Yr    1 of   14 Time  20:54:37
  Original Simulation        8   3  2010 Yr    1 of   14 Time  20:54:37
  Original Simulation        8   4  2010 Yr    1 of   14 Time  20:54:37
  Original Simulation        8   5  2010 Yr    1 of   14 Time  20:54:37
  Original Simulation        8   6  2010 Yr    1 of   14 Time  20:54:37
  Original Simulation        8   7  2010 Yr    1 of   14 Time  20:54:37
  Original Simulation        8   8  2010 Yr    1 of   14 Time  20:54:37
  Original Simulation        8   9  2010 Yr    1 of   14 Time  20:54:37
  Original Simulation        8  10  2010 Yr    1 of   14 Time  20:54:37
  Original Simulation        8  11  2010 Yr    1 of   14 Time  20:54:37
  Original Simulation        8  12  2010 Yr    1 of   14 Time  20:54:37
  Original Simulation        8  13  2010 Yr    1 of   14 Time  20:54:38
  Original Simulation        8  14  2010 Yr    1 of   14 Time  20:54:38
  Original Simulation        8  15  2010 Yr    1 of   14 Time  20:54:38
  Original Simulation        8  16  2010 Yr    1 of   14 Time  20:54:38
  Original Simulation        8  17  2010 Yr    1 of   14 Time  20:54:38
  Original Simulation        8  18  2010 Yr    1 of   14 Time  20:54:38
  Original Simulation        8  19  2010 Yr    1 of   14 Time  20:54:38
  Original Simulation        8  20  2010 Yr    1 of   14 Time  20:54:38
  Original Simulation        8  21  2010 Yr    1 of   14 Time  20:54:38
  Original Simulation        8  22  2010 Yr    1 of   14 Time  20:54:38
  Original Simulation        8  23  2010 Yr    1 of   14 Time  20:54:38
  Original Simulation        8  24  2010 Yr    1 of   14 Time  20:54:39
  Original Simulation        8  25  2010 Yr    1 of   14 Time  20:54:39
  Original Simulation        8  26  2010 Yr    1 of   14 Time  20:54:39
  Original Simulation        8  27  2010 Yr    1 of   14 Time  20:54:39
  Original Simulation        8  28  2010 Yr    1 of   14 Time  20:54:39
  Original Simulation        8  29  2010 Yr    1 of   14 Time  20:54:39
  Original Simulation        8  30  2010 Yr    1 of   14 Time  20:54:39
  Original Simulation        8  31  2010 Yr    1 of   14 Time  20:54:39
  Original Simulation        9   1  2010 Yr    1 of   14 Time  20:54:39
  Original Simulation        9   2  2010 Yr    1 of   14 Time  20:54:39
  Original Simulation        9   3  2010 Yr    1 of   14 Time  20:54:39
  Original Simulation        9   4  2010 Yr    1 of   14 Time  20:54:40
  Original Simulation        9   5  2010 Yr    1 of   14 Time  20:54:40
  Original Simulation        9   6  2010 Yr    1 of   14 Time  20:54:40
  Original Simulation        9   7  2010 Yr    1 of   14 Time  20:54:40
  Original Simulation        9   8  2010 Yr    1 of   14 Time  20:54:40
  Original Simulation        9   9  2010 Yr    1 of   14 Time  20:54:40
  Original Simulation        9  10  2010 Yr    1 of   14 Time  20:54:40
  Original Simulation        9  11  2010 Yr    1 of   14 Time  20:54:40
  Original Simulation        9  12  2010 Yr    1 of   14 Time  20:54:40
  Original Simulation        9  13  2010 Yr    1 of   14 Time  20:54:40
  Original Simulation        9  14  2010 Yr    1 of   14 Time  20:54:41
  Original Simulation        9  15  2010 Yr    1 of   14 Time  20:54:41
  Original Simulation        9  16  2010 Yr    1 of   14 Time  20:54:41
  Original Simulation        9  17  2010 Yr    1 of   14 Time  20:54:41
  Original Simulation        9  18  2010 Yr    1 of   14 Time  20:54:41
  Original Simulation        9  19  2010 Yr    1 of   14 Time  20:54:41
  Original Simulation        9  20  2010 Yr    1 of   14 Time  20:54:41
  Original Simulation        9  21  2010 Yr    1 of   14 Time  20:54:41
  Original Simulation        9  22  2010 Yr    1 of   14 Time  20:54:41
  Original Simulation        9  23  2010 Yr    1 of   14 Time  20:54:41
  Original Simulation        9  24  2010 Yr    1 of   14 Time  20:54:41
  Original Simulation        9  25  2010 Yr    1 of   14 Time  20:54:42
  Original Simulation        9  26  2010 Yr    1 of   14 Time  20:54:42
  Original Simulation        9  27  2010 Yr    1 of   14 Time  20:54:42
  Original Simulation        9  28  2010 Yr    1 of   14 Time  20:54:42
  Original Simulation        9  29  2010 Yr    1 of   14 Time  20:54:42
  Original Simulation        9  30  2010 Yr    1 of   14 Time  20:54:42
  Original Simulation       10   1  2010 Yr    1 of   14 Time  20:54:42
  Original Simulation       10   2  2010 Yr    1 of   14 Time  20:54:42
  Original Simulation       10   3  2010 Yr    1 of   14 Time  20:54:42
  Original Simulation       10   4  2010 Yr    1 of   14 Time  20:54:42
  Original Simulation       10   5  2010 Yr    1 of   14 Time  20:54:42
  Original Simulation       10   6  2010 Yr    1 of   14 Time  20:54:43
  Original Simulation       10   7  2010 Yr    1 of   14 Time  20:54:43
  Original Simulation       10   8  2010 Yr    1 of   14 Time  20:54:43
  Original Simulation       10   9  2010 Yr    1 of   14 Time  20:54:43
  Original Simulation       10  10  2010 Yr    1 of   14 Time  20:54:43
  Original Simulation       10  11  2010 Yr    1 of   14 Time  20:54:43
  Original Simulation       10  12  2010 Yr    1 of   14 Time  20:54:43
  Original Simulation       10  13  2010 Yr    1 of   14 Time  20:54:43
  Original Simulation       10  14  2010 Yr    1 of   14 Time  20:54:43
  Original Simulation       10  15  2010 Yr    1 of   14 Time  20:54:43
  Original Simulation       10  16  2010 Yr    1 of   14 Time  20:54:43
  Original Simulation       10  17  2010 Yr    1 of   14 Time  20:54:44
  Original Simulation       10  18  2010 Yr    1 of   14 Time  20:54:44
  Original Simulation       10  19  2010 Yr    1 of   14 Time  20:54:44
  Original Simulation       10  20  2010 Yr    1 of   14 Time  20:54:44
  Original Simulation       10  21  2010 Yr    1 of   14 Time  20:54:44
  Original Simulation       10  22  2010 Yr    1 of   14 Time  20:54:44
  Original Simulation       10  23  2010 Yr    1 of   14 Time  20:54:44
  Original Simulation       10  24  2010 Yr    1 of   14 Time  20:54:44
  Original Simulation       10  25  2010 Yr    1 of   14 Time  20:54:44
  Original Simulation       10  26  2010 Yr    1 of   14 Time  20:54:44
  Original Simulation       10  27  2010 Yr    1 of   14 Time  20:54:44
  Original Simulation       10  28  2010 Yr    1 of   14 Time  20:54:45
  Original Simulation       10  29  2010 Yr    1 of   14 Time  20:54:45
  Original Simulation       10  30  2010 Yr    1 of   14 Time  20:54:45
  Original Simulation       10  31  2010 Yr    1 of   14 Time  20:54:45
  Original Simulation       11   1  2010 Yr    1 of   14 Time  20:54:45
  Original Simulation       11   2  2010 Yr    1 of   14 Time  20:54:45
  Original Simulation       11   3  2010 Yr    1 of   14 Time  20:54:45
  Original Simulation       11   4  2010 Yr    1 of   14 Time  20:54:45
  Original Simulation       11   5  2010 Yr    1 of   14 Time  20:54:45
  Original Simulation       11   6  2010 Yr    1 of   14 Time  20:54:45
  Original Simulation       11   7  2010 Yr    1 of   14 Time  20:54:45
  Original Simulation       11   8  2010 Yr    1 of   14 Time  20:54:46
  Original Simulation       11   9  2010 Yr    1 of   14 Time  20:54:46
  Original Simulation       11  10  2010 Yr    1 of   14 Time  20:54:46
  Original Simulation       11  11  2010 Yr    1 of   14 Time  20:54:46
  Original Simulation       11  12  2010 Yr    1 of   14 Time  20:54:46
  Original Simulation       11  13  2010 Yr    1 of   14 Time  20:54:46
  Original Simulation       11  14  2010 Yr    1 of   14 Time  20:54:46
  Original Simulation       11  15  2010 Yr    1 of   14 Time  20:54:46
  Original Simulation       11  16  2010 Yr    1 of   14 Time  20:54:46
  Original Simulation       11  17  2010 Yr    1 of   14 Time  20:54:46
  Original Simulation       11  18  2010 Yr    1 of   14 Time  20:54:46
  Original Simulation       11  19  2010 Yr    1 of   14 Time  20:54:46
  Original Simulation       11  20  2010 Yr    1 of   14 Time  20:54:47
  Original Simulation       11  21  2010 Yr    1 of   14 Time  20:54:47
  Original Simulation       11  22  2010 Yr    1 of   14 Time  20:54:47
  Original Simulation       11  23  2010 Yr    1 of   14 Time  20:54:47
  Original Simulation       11  24  2010 Yr    1 of   14 Time  20:54:47
  Original Simulation       11  25  2010 Yr    1 of   14 Time  20:54:47
  Original Simulation       11  26  2010 Yr    1 of   14 Time  20:54:47
  Original Simulation       11  27  2010 Yr    1 of   14 Time  20:54:47
  Original Simulation       11  28  2010 Yr    1 of   14 Time  20:54:47
  Original Simulation       11  29  2010 Yr    1 of   14 Time  20:54:47
  Original Simulation       11  30  2010 Yr    1 of   14 Time  20:54:47
  Original Simulation       12   1  2010 Yr    1 of   14 Time  20:54:48
  Original Simulation       12   2  2010 Yr    1 of   14 Time  20:54:48
  Original Simulation       12   3  2010 Yr    1 of   14 Time  20:54:48
  Original Simulation       12   4  2010 Yr    1 of   14 Time  20:54:48
  Original Simulation       12   5  2010 Yr    1 of   14 Time  20:54:48
  Original Simulation       12   6  2010 Yr    1 of   14 Time  20:54:48
  Original Simulation       12   7  2010 Yr    1 of   14 Time  20:54:48
  Original Simulation       12   8  2010 Yr    1 of   14 Time  20:54:48
  Original Simulation       12   9  2010 Yr    1 of   14 Time  20:54:48
  Original Simulation       12  10  2010 Yr    1 of   14 Time  20:54:48
  Original Simulation       12  11  2010 Yr    1 of   14 Time  20:54:48
  Original Simulation       12  12  2010 Yr    1 of   14 Time  20:54:49
  Original Simulation       12  13  2010 Yr    1 of   14 Time  20:54:49
  Original Simulation       12  14  2010 Yr    1 of   14 Time  20:54:49
  Original Simulation       12  15  2010 Yr    1 of   14 Time  20:54:49
  Original Simulation       12  16  2010 Yr    1 of   14 Time  20:54:49
  Original Simulation       12  17  2010 Yr    1 of   14 Time  20:54:49
  Original Simulation       12  18  2010 Yr    1 of   14 Time  20:54:49
  Original Simulation       12  19  2010 Yr    1 of   14 Time  20:54:49
  Original Simulation       12  20  2010 Yr    1 of   14 Time  20:54:49
  Original Simulation       12  21  2010 Yr    1 of   14 Time  20:54:49
  Original Simulation       12  22  2010 Yr    1 of   14 Time  20:54:49
  Original Simulation       12  23  2010 Yr    1 of   14 Time  20:54:49
  Original Simulation       12  24  2010 Yr    1 of   14 Time  20:54:50
  Original Simulation       12  25  2010 Yr    1 of   14 Time  20:54:50
  Original Simulation       12  26  2010 Yr    1 of   14 Time  20:54:50
  Original Simulation       12  27  2010 Yr    1 of   14 Time  20:54:50
  Original Simulation       12  28  2010 Yr    1 of   14 Time  20:54:50
  Original Simulation       12  29  2010 Yr    1 of   14 Time  20:54:50
  Original Simulation       12  30  2010 Yr    1 of   14 Time  20:54:50
  Original Simulation       12  31  2010 Yr    1 of   14 Time  20:54:50
  Original Simulation        1   1  2011 Yr    2 of   14 Time  20:54:50
  Original Simulation        1   2  2011 Yr    2 of   14 Time  20:54:50
  Original Simulation        1   3  2011 Yr    2 of   14 Time  20:54:50
  Original Simulation        1   4  2011 Yr    2 of   14 Time  20:54:51
  Original Simulation        1   5  2011 Yr    2 of   14 Time  20:54:51
  Original Simulation        1   6  2011 Yr    2 of   14 Time  20:54:51
  Original Simulation        1   7  2011 Yr    2 of   14 Time  20:54:51
  Original Simulation        1   8  2011 Yr    2 of   14 Time  20:54:51
  Original Simulation        1   9  2011 Yr    2 of   14 Time  20:54:51
  Original Simulation        1  10  2011 Yr    2 of   14 Time  20:54:51
  Original Simulation        1  11  2011 Yr    2 of   14 Time  20:54:51
  Original Simulation        1  12  2011 Yr    2 of   14 Time  20:54:51
  Original Simulation        1  13  2011 Yr    2 of   14 Time  20:54:51
  Original Simulation        1  14  2011 Yr    2 of   14 Time  20:54:51
  Original Simulation        1  15  2011 Yr    2 of   14 Time  20:54:51
  Original Simulation        1  16  2011 Yr    2 of   14 Time  20:54:51
  Original Simulation        1  17  2011 Yr    2 of   14 Time  20:54:52
  Original Simulation        1  18  2011 Yr    2 of   14 Time  20:54:52
  Original Simulation        1  19  2011 Yr    2 of   14 Time  20:54:52
  Original Simulation        1  20  2011 Yr    2 of   14 Time  20:54:52
  Original Simulation        1  21  2011 Yr    2 of   14 Time  20:54:52
  Original Simulation        1  22  2011 Yr    2 of   14 Time  20:54:52
  Original Simulation        1  23  2011 Yr    2 of   14 Time  20:54:52
  Original Simulation        1  24  2011 Yr    2 of   14 Time  20:54:52
  Original Simulation        1  25  2011 Yr    2 of   14 Time  20:54:52
  Original Simulation        1  26  2011 Yr    2 of   14 Time  20:54:52
  Original Simulation        1  27  2011 Yr    2 of   14 Time  20:54:52
  Original Simulation        1  28  2011 Yr    2 of   14 Time  20:54:52
  Original Simulation        1  29  2011 Yr    2 of   14 Time  20:54:53
  Original Simulation        1  30  2011 Yr    2 of   14 Time  20:54:53
  Original Simulation        1  31  2011 Yr    2 of   14 Time  20:54:53
  Original Simulation        2   1  2011 Yr    2 of   14 Time  20:54:53
  Original Simulation        2   2  2011 Yr    2 of   14 Time  20:54:53
  Original Simulation        2   3  2011 Yr    2 of   14 Time  20:54:53
  Original Simulation        2   4  2011 Yr    2 of   14 Time  20:54:53
  Original Simulation        2   5  2011 Yr    2 of   14 Time  20:54:53
  Original Simulation        2   6  2011 Yr    2 of   14 Time  20:54:53
  Original Simulation        2   7  2011 Yr    2 of   14 Time  20:54:53
  Original Simulation        2   8  2011 Yr    2 of   14 Time  20:54:53
  Original Simulation        2   9  2011 Yr    2 of   14 Time  20:54:53
  Original Simulation        2  10  2011 Yr    2 of   14 Time  20:54:54
  Original Simulation        2  11  2011 Yr    2 of   14 Time  20:54:54
  Original Simulation        2  12  2011 Yr    2 of   14 Time  20:54:54
  Original Simulation        2  13  2011 Yr    2 of   14 Time  20:54:54
  Original Simulation        2  14  2011 Yr    2 of   14 Time  20:54:54
  Original Simulation        2  15  2011 Yr    2 of   14 Time  20:54:54
  Original Simulation        2  16  2011 Yr    2 of   14 Time  20:54:54
  Original Simulation        2  17  2011 Yr    2 of   14 Time  20:54:54
  Original Simulation        2  18  2011 Yr    2 of   14 Time  20:54:54
  Original Simulation        2  19  2011 Yr    2 of   14 Time  20:54:54
  Original Simulation        2  20  2011 Yr    2 of   14 Time  20:54:54
  Original Simulation        2  21  2011 Yr    2 of   14 Time  20:54:54
  Original Simulation        2  22  2011 Yr    2 of   14 Time  20:54:55
  Original Simulation        2  23  2011 Yr    2 of   14 Time  20:54:55
  Original Simulation        2  24  2011 Yr    2 of   14 Time  20:54:55
  Original Simulation        2  25  2011 Yr    2 of   14 Time  20:54:55
  Original Simulation        2  26  2011 Yr    2 of   14 Time  20:54:55
  Original Simulation        2  27  2011 Yr    2 of   14 Time  20:54:55
  Original Simulation        2  28  2011 Yr    2 of   14 Time  20:54:55
  Original Simulation        3   1  2011 Yr    2 of   14 Time  20:54:55
  Original Simulation        3   2  2011 Yr    2 of   14 Time  20:54:55
  Original Simulation        3   3  2011 Yr    2 of   14 Time  20:54:55
  Original Simulation        3   4  2011 Yr    2 of   14 Time  20:54:55
  Original Simulation        3   5  2011 Yr    2 of   14 Time  20:54:56
  Original Simulation        3   6  2011 Yr    2 of   14 Time  20:54:56
  Original Simulation        3   7  2011 Yr    2 of   14 Time  20:54:56
  Original Simulation        3   8  2011 Yr    2 of   14 Time  20:54:56
  Original Simulation        3   9  2011 Yr    2 of   14 Time  20:54:56
  Original Simulation        3  10  2011 Yr    2 of   14 Time  20:54:56
  Original Simulation        3  11  2011 Yr    2 of   14 Time  20:54:56
  Original Simulation        3  12  2011 Yr    2 of   14 Time  20:54:56
  Original Simulation        3  13  2011 Yr    2 of   14 Time  20:54:56
  Original Simulation        3  14  2011 Yr    2 of   14 Time  20:54:56
  Original Simulation        3  15  2011 Yr    2 of   14 Time  20:54:56
  Original Simulation        3  16  2011 Yr    2 of   14 Time  20:54:56
  Original Simulation        3  17  2011 Yr    2 of   14 Time  20:54:57
  Original Simulation        3  18  2011 Yr    2 of   14 Time  20:54:57
  Original Simulation        3  19  2011 Yr    2 of   14 Time  20:54:57
  Original Simulation        3  20  2011 Yr    2 of   14 Time  20:54:57
  Original Simulation        3  21  2011 Yr    2 of   14 Time  20:54:57
  Original Simulation        3  22  2011 Yr    2 of   14 Time  20:54:57
  Original Simulation        3  23  2011 Yr    2 of   14 Time  20:54:57
  Original Simulation        3  24  2011 Yr    2 of   14 Time  20:54:57
  Original Simulation        3  25  2011 Yr    2 of   14 Time  20:54:57
  Original Simulation        3  26  2011 Yr    2 of   14 Time  20:54:57
  Original Simulation        3  27  2011 Yr    2 of   14 Time  20:54:57
  Original Simulation        3  28  2011 Yr    2 of   14 Time  20:54:57
  Original Simulation        3  29  2011 Yr    2 of   14 Time  20:54:58
  Original Simulation        3  30  2011 Yr    2 of   14 Time  20:54:58
  Original Simulation        3  31  2011 Yr    2 of   14 Time  20:54:58
  Original Simulation        4   1  2011 Yr    2 of   14 Time  20:54:58
  Original Simulation        4   2  2011 Yr    2 of   14 Time  20:54:58
  Original Simulation        4   3  2011 Yr    2 of   14 Time  20:54:58
  Original Simulation        4   4  2011 Yr    2 of   14 Time  20:54:58
  Original Simulation        4   5  2011 Yr    2 of   14 Time  20:54:58
  Original Simulation        4   6  2011 Yr    2 of   14 Time  20:54:58
  Original Simulation        4   7  2011 Yr    2 of   14 Time  20:54:58
  Original Simulation        4   8  2011 Yr    2 of   14 Time  20:54:58
  Original Simulation        4   9  2011 Yr    2 of   14 Time  20:54:58
  Original Simulation        4  10  2011 Yr    2 of   14 Time  20:54:59
  Original Simulation        4  11  2011 Yr    2 of   14 Time  20:54:59
  Original Simulation        4  12  2011 Yr    2 of   14 Time  20:54:59
  Original Simulation        4  13  2011 Yr    2 of   14 Time  20:54:59
  Original Simulation        4  14  2011 Yr    2 of   14 Time  20:54:59
  Original Simulation        4  15  2011 Yr    2 of   14 Time  20:54:59
  Original Simulation        4  16  2011 Yr    2 of   14 Time  20:54:59
  Original Simulation        4  17  2011 Yr    2 of   14 Time  20:54:59
  Original Simulation        4  18  2011 Yr    2 of   14 Time  20:54:59
  Original Simulation        4  19  2011 Yr    2 of   14 Time  20:54:59
  Original Simulation        4  20  2011 Yr    2 of   14 Time  20:54:59
  Original Simulation        4  21  2011 Yr    2 of   14 Time  20:54:59
  Original Simulation        4  22  2011 Yr    2 of   14 Time  20:55: 0
  Original Simulation        4  23  2011 Yr    2 of   14 Time  20:55: 0
  Original Simulation        4  24  2011 Yr    2 of   14 Time  20:55: 0
  Original Simulation        4  25  2011 Yr    2 of   14 Time  20:55: 0
  Original Simulation        4  26  2011 Yr    2 of   14 Time  20:55: 0
  Original Simulation        4  27  2011 Yr    2 of   14 Time  20:55: 0
  Original Simulation        4  28  2011 Yr    2 of   14 Time  20:55: 0
  Original Simulation        4  29  2011 Yr    2 of   14 Time  20:55: 0
  Original Simulation        4  30  2011 Yr    2 of   14 Time  20:55: 0
  Original Simulation        5   1  2011 Yr    2 of   14 Time  20:55: 0
  Original Simulation        5   2  2011 Yr    2 of   14 Time  20:55: 0
  Original Simulation        5   3  2011 Yr    2 of   14 Time  20:55: 1
  Original Simulation        5   4  2011 Yr    2 of   14 Time  20:55: 1
  Original Simulation        5   5  2011 Yr    2 of   14 Time  20:55: 1
  Original Simulation        5   6  2011 Yr    2 of   14 Time  20:55: 1
  Original Simulation        5   7  2011 Yr    2 of   14 Time  20:55: 1
  Original Simulation        5   8  2011 Yr    2 of   14 Time  20:55: 1
  Original Simulation        5   9  2011 Yr    2 of   14 Time  20:55: 1
  Original Simulation        5  10  2011 Yr    2 of   14 Time  20:55: 1
  Original Simulation        5  11  2011 Yr    2 of   14 Time  20:55: 1
  Original Simulation        5  12  2011 Yr    2 of   14 Time  20:55: 1
  Original Simulation        5  13  2011 Yr    2 of   14 Time  20:55: 1
  Original Simulation        5  14  2011 Yr    2 of   14 Time  20:55: 1
  Original Simulation        5  15  2011 Yr    2 of   14 Time  20:55: 2
  Original Simulation        5  16  2011 Yr    2 of   14 Time  20:55: 2
  Original Simulation        5  17  2011 Yr    2 of   14 Time  20:55: 2
  Original Simulation        5  18  2011 Yr    2 of   14 Time  20:55: 2
  Original Simulation        5  19  2011 Yr    2 of   14 Time  20:55: 2
  Original Simulation        5  20  2011 Yr    2 of   14 Time  20:55: 2
  Original Simulation        5  21  2011 Yr    2 of   14 Time  20:55: 2
  Original Simulation        5  22  2011 Yr    2 of   14 Time  20:55: 2
  Original Simulation        5  23  2011 Yr    2 of   14 Time  20:55: 2
  Original Simulation        5  24  2011 Yr    2 of   14 Time  20:55: 2
  Original Simulation        5  25  2011 Yr    2 of   14 Time  20:55: 2
  Original Simulation        5  26  2011 Yr    2 of   14 Time  20:55: 3
  Original Simulation        5  27  2011 Yr    2 of   14 Time  20:55: 3
  Original Simulation        5  28  2011 Yr    2 of   14 Time  20:55: 3
  Original Simulation        5  29  2011 Yr    2 of   14 Time  20:55: 3
  Original Simulation        5  30  2011 Yr    2 of   14 Time  20:55: 3
  Original Simulation        5  31  2011 Yr    2 of   14 Time  20:55: 3
  Original Simulation        6   1  2011 Yr    2 of   14 Time  20:55: 3
  Original Simulation        6   2  2011 Yr    2 of   14 Time  20:55: 3
  Original Simulation        6   3  2011 Yr    2 of   14 Time  20:55: 3
  Original Simulation        6   4  2011 Yr    2 of   14 Time  20:55: 3
  Original Simulation        6   5  2011 Yr    2 of   14 Time  20:55: 3
  Original Simulation        6   6  2011 Yr    2 of   14 Time  20:55: 4
  Original Simulation        6   7  2011 Yr    2 of   14 Time  20:55: 4
  Original Simulation        6   8  2011 Yr    2 of   14 Time  20:55: 4
  Original Simulation        6   9  2011 Yr    2 of   14 Time  20:55: 4
  Original Simulation        6  10  2011 Yr    2 of   14 Time  20:55: 4
  Original Simulation        6  11  2011 Yr    2 of   14 Time  20:55: 4
  Original Simulation        6  12  2011 Yr    2 of   14 Time  20:55: 4
  Original Simulation        6  13  2011 Yr    2 of   14 Time  20:55: 4
  Original Simulation        6  14  2011 Yr    2 of   14 Time  20:55: 4
  Original Simulation        6  15  2011 Yr    2 of   14 Time  20:55: 4
  Original Simulation        6  16  2011 Yr    2 of   14 Time  20:55: 4
  Original Simulation        6  17  2011 Yr    2 of   14 Time  20:55: 5
  Original Simulation        6  18  2011 Yr    2 of   14 Time  20:55: 5
  Original Simulation        6  19  2011 Yr    2 of   14 Time  20:55: 5
  Original Simulation        6  20  2011 Yr    2 of   14 Time  20:55: 5
  Original Simulation        6  21  2011 Yr    2 of   14 Time  20:55: 5
  Original Simulation        6  22  2011 Yr    2 of   14 Time  20:55: 5
  Original Simulation        6  23  2011 Yr    2 of   14 Time  20:55: 5
  Original Simulation        6  24  2011 Yr    2 of   14 Time  20:55: 5
  Original Simulation        6  25  2011 Yr    2 of   14 Time  20:55: 5
  Original Simulation        6  26  2011 Yr    2 of   14 Time  20:55: 5
  Original Simulation        6  27  2011 Yr    2 of   14 Time  20:55: 5
  Original Simulation        6  28  2011 Yr    2 of   14 Time  20:55: 6
  Original Simulation        6  29  2011 Yr    2 of   14 Time  20:55: 6
  Original Simulation        6  30  2011 Yr    2 of   14 Time  20:55: 6
  Original Simulation        7   1  2011 Yr    2 of   14 Time  20:55: 6
  Original Simulation        7   2  2011 Yr    2 of   14 Time  20:55: 6
  Original Simulation        7   3  2011 Yr    2 of   14 Time  20:55: 6
  Original Simulation        7   4  2011 Yr    2 of   14 Time  20:55: 6
  Original Simulation        7   5  2011 Yr    2 of   14 Time  20:55: 6
  Original Simulation        7   6  2011 Yr    2 of   14 Time  20:55: 6
  Original Simulation        7   7  2011 Yr    2 of   14 Time  20:55: 6
  Original Simulation        7   8  2011 Yr    2 of   14 Time  20:55: 6
  Original Simulation        7   9  2011 Yr    2 of   14 Time  20:55: 7
  Original Simulation        7  10  2011 Yr    2 of   14 Time  20:55: 7
  Original Simulation        7  11  2011 Yr    2 of   14 Time  20:55: 7
  Original Simulation        7  12  2011 Yr    2 of   14 Time  20:55: 7
  Original Simulation        7  13  2011 Yr    2 of   14 Time  20:55: 7
  Original Simulation        7  14  2011 Yr    2 of   14 Time  20:55: 7
  Original Simulation        7  15  2011 Yr    2 of   14 Time  20:55: 7
  Original Simulation        7  16  2011 Yr    2 of   14 Time  20:55: 7
  Original Simulation        7  17  2011 Yr    2 of   14 Time  20:55: 7
  Original Simulation        7  18  2011 Yr    2 of   14 Time  20:55: 7
  Original Simulation        7  19  2011 Yr    2 of   14 Time  20:55: 7
  Original Simulation        7  20  2011 Yr    2 of   14 Time  20:55: 8
  Original Simulation        7  21  2011 Yr    2 of   14 Time  20:55: 8
  Original Simulation        7  22  2011 Yr    2 of   14 Time  20:55: 8
  Original Simulation        7  23  2011 Yr    2 of   14 Time  20:55: 8
  Original Simulation        7  24  2011 Yr    2 of   14 Time  20:55: 8
  Original Simulation        7  25  2011 Yr    2 of   14 Time  20:55: 8
  Original Simulation        7  26  2011 Yr    2 of   14 Time  20:55: 8
  Original Simulation        7  27  2011 Yr    2 of   14 Time  20:55: 8
  Original Simulation        7  28  2011 Yr    2 of   14 Time  20:55: 8
  Original Simulation        7  29  2011 Yr    2 of   14 Time  20:55: 8
  Original Simulation        7  30  2011 Yr    2 of   14 Time  20:55: 8
  Original Simulation        7  31  2011 Yr    2 of   14 Time  20:55: 9
  Original Simulation        8   1  2011 Yr    2 of   14 Time  20:55: 9
  Original Simulation        8   2  2011 Yr    2 of   14 Time  20:55: 9
  Original Simulation        8   3  2011 Yr    2 of   14 Time  20:55: 9
  Original Simulation        8   4  2011 Yr    2 of   14 Time  20:55: 9
  Original Simulation        8   5  2011 Yr    2 of   14 Time  20:55: 9
  Original Simulation        8   6  2011 Yr    2 of   14 Time  20:55: 9
  Original Simulation        8   7  2011 Yr    2 of   14 Time  20:55: 9
  Original Simulation        8   8  2011 Yr    2 of   14 Time  20:55: 9
  Original Simulation        8   9  2011 Yr    2 of   14 Time  20:55: 9
  Original Simulation        8  10  2011 Yr    2 of   14 Time  20:55: 9
  Original Simulation        8  11  2011 Yr    2 of   14 Time  20:55:10
  Original Simulation        8  12  2011 Yr    2 of   14 Time  20:55:10
  Original Simulation        8  13  2011 Yr    2 of   14 Time  20:55:10
  Original Simulation        8  14  2011 Yr    2 of   14 Time  20:55:10
  Original Simulation        8  15  2011 Yr    2 of   14 Time  20:55:10
  Original Simulation        8  16  2011 Yr    2 of   14 Time  20:55:10
  Original Simulation        8  17  2011 Yr    2 of   14 Time  20:55:10
  Original Simulation        8  18  2011 Yr    2 of   14 Time  20:55:10
  Original Simulation        8  19  2011 Yr    2 of   14 Time  20:55:10
  Original Simulation        8  20  2011 Yr    2 of   14 Time  20:55:10
  Original Simulation        8  21  2011 Yr    2 of   14 Time  20:55:10
  Original Simulation        8  22  2011 Yr    2 of   14 Time  20:55:11
  Original Simulation        8  23  2011 Yr    2 of   14 Time  20:55:11
  Original Simulation        8  24  2011 Yr    2 of   14 Time  20:55:11
  Original Simulation        8  25  2011 Yr    2 of   14 Time  20:55:11
  Original Simulation        8  26  2011 Yr    2 of   14 Time  20:55:11
  Original Simulation        8  27  2011 Yr    2 of   14 Time  20:55:11
  Original Simulation        8  28  2011 Yr    2 of   14 Time  20:55:11
  Original Simulation        8  29  2011 Yr    2 of   14 Time  20:55:11
  Original Simulation        8  30  2011 Yr    2 of   14 Time  20:55:11
  Original Simulation        8  31  2011 Yr    2 of   14 Time  20:55:11
  Original Simulation        9   1  2011 Yr    2 of   14 Time  20:55:11
  Original Simulation        9   2  2011 Yr    2 of   14 Time  20:55:12
  Original Simulation        9   3  2011 Yr    2 of   14 Time  20:55:12
  Original Simulation        9   4  2011 Yr    2 of   14 Time  20:55:12
  Original Simulation        9   5  2011 Yr    2 of   14 Time  20:55:12
  Original Simulation        9   6  2011 Yr    2 of   14 Time  20:55:12
  Original Simulation        9   7  2011 Yr    2 of   14 Time  20:55:12
  Original Simulation        9   8  2011 Yr    2 of   14 Time  20:55:12
  Original Simulation        9   9  2011 Yr    2 of   14 Time  20:55:12
  Original Simulation        9  10  2011 Yr    2 of   14 Time  20:55:12
  Original Simulation        9  11  2011 Yr    2 of   14 Time  20:55:12
  Original Simulation        9  12  2011 Yr    2 of   14 Time  20:55:13
  Original Simulation        9  13  2011 Yr    2 of   14 Time  20:55:13
  Original Simulation        9  14  2011 Yr    2 of   14 Time  20:55:13
  Original Simulation        9  15  2011 Yr    2 of   14 Time  20:55:13
  Original Simulation        9  16  2011 Yr    2 of   14 Time  20:55:13
  Original Simulation        9  17  2011 Yr    2 of   14 Time  20:55:13
  Original Simulation        9  18  2011 Yr    2 of   14 Time  20:55:13
  Original Simulation        9  19  2011 Yr    2 of   14 Time  20:55:13
  Original Simulation        9  20  2011 Yr    2 of   14 Time  20:55:13
  Original Simulation        9  21  2011 Yr    2 of   14 Time  20:55:13
  Original Simulation        9  22  2011 Yr    2 of   14 Time  20:55:13
  Original Simulation        9  23  2011 Yr    2 of   14 Time  20:55:14
  Original Simulation        9  24  2011 Yr    2 of   14 Time  20:55:14
  Original Simulation        9  25  2011 Yr    2 of   14 Time  20:55:14
  Original Simulation        9  26  2011 Yr    2 of   14 Time  20:55:14
  Original Simulation        9  27  2011 Yr    2 of   14 Time  20:55:14
  Original Simulation        9  28  2011 Yr    2 of   14 Time  20:55:14
  Original Simulation        9  29  2011 Yr    2 of   14 Time  20:55:14
  Original Simulation        9  30  2011 Yr    2 of   14 Time  20:55:14
  Original Simulation       10   1  2011 Yr    2 of   14 Time  20:55:14
  Original Simulation       10   2  2011 Yr    2 of   14 Time  20:55:14
  Original Simulation       10   3  2011 Yr    2 of   14 Time  20:55:14
  Original Simulation       10   4  2011 Yr    2 of   14 Time  20:55:15
  Original Simulation       10   5  2011 Yr    2 of   14 Time  20:55:15
  Original Simulation       10   6  2011 Yr    2 of   14 Time  20:55:15
  Original Simulation       10   7  2011 Yr    2 of   14 Time  20:55:15
  Original Simulation       10   8  2011 Yr    2 of   14 Time  20:55:15
  Original Simulation       10   9  2011 Yr    2 of   14 Time  20:55:15
  Original Simulation       10  10  2011 Yr    2 of   14 Time  20:55:15
  Original Simulation       10  11  2011 Yr    2 of   14 Time  20:55:15
  Original Simulation       10  12  2011 Yr    2 of   14 Time  20:55:15
  Original Simulation       10  13  2011 Yr    2 of   14 Time  20:55:15
  Original Simulation       10  14  2011 Yr    2 of   14 Time  20:55:15
  Original Simulation       10  15  2011 Yr    2 of   14 Time  20:55:16
  Original Simulation       10  16  2011 Yr    2 of   14 Time  20:55:16
  Original Simulation       10  17  2011 Yr    2 of   14 Time  20:55:16
  Original Simulation       10  18  2011 Yr    2 of   14 Time  20:55:16
  Original Simulation       10  19  2011 Yr    2 of   14 Time  20:55:16
  Original Simulation       10  20  2011 Yr    2 of   14 Time  20:55:16
  Original Simulation       10  21  2011 Yr    2 of   14 Time  20:55:16
  Original Simulation       10  22  2011 Yr    2 of   14 Time  20:55:16
  Original Simulation       10  23  2011 Yr    2 of   14 Time  20:55:16
  Original Simulation       10  24  2011 Yr    2 of   14 Time  20:55:16
  Original Simulation       10  25  2011 Yr    2 of   14 Time  20:55:16
  Original Simulation       10  26  2011 Yr    2 of   14 Time  20:55:17
  Original Simulation       10  27  2011 Yr    2 of   14 Time  20:55:17
  Original Simulation       10  28  2011 Yr    2 of   14 Time  20:55:17
  Original Simulation       10  29  2011 Yr    2 of   14 Time  20:55:17
  Original Simulation       10  30  2011 Yr    2 of   14 Time  20:55:17
  Original Simulation       10  31  2011 Yr    2 of   14 Time  20:55:17
  Original Simulation       11   1  2011 Yr    2 of   14 Time  20:55:17
  Original Simulation       11   2  2011 Yr    2 of   14 Time  20:55:17
  Original Simulation       11   3  2011 Yr    2 of   14 Time  20:55:17
  Original Simulation       11   4  2011 Yr    2 of   14 Time  20:55:17
  Original Simulation       11   5  2011 Yr    2 of   14 Time  20:55:17
  Original Simulation       11   6  2011 Yr    2 of   14 Time  20:55:18
  Original Simulation       11   7  2011 Yr    2 of   14 Time  20:55:18
  Original Simulation       11   8  2011 Yr    2 of   14 Time  20:55:18
  Original Simulation       11   9  2011 Yr    2 of   14 Time  20:55:18
  Original Simulation       11  10  2011 Yr    2 of   14 Time  20:55:18
  Original Simulation       11  11  2011 Yr    2 of   14 Time  20:55:18
  Original Simulation       11  12  2011 Yr    2 of   14 Time  20:55:18
  Original Simulation       11  13  2011 Yr    2 of   14 Time  20:55:18
  Original Simulation       11  14  2011 Yr    2 of   14 Time  20:55:18
  Original Simulation       11  15  2011 Yr    2 of   14 Time  20:55:18
  Original Simulation       11  16  2011 Yr    2 of   14 Time  20:55:18
  Original Simulation       11  17  2011 Yr    2 of   14 Time  20:55:19
  Original Simulation       11  18  2011 Yr    2 of   14 Time  20:55:19
  Original Simulation       11  19  2011 Yr    2 of   14 Time  20:55:19
  Original Simulation       11  20  2011 Yr    2 of   14 Time  20:55:19
  Original Simulation       11  21  2011 Yr    2 of   14 Time  20:55:19
  Original Simulation       11  22  2011 Yr    2 of   14 Time  20:55:19
  Original Simulation       11  23  2011 Yr    2 of   14 Time  20:55:19
  Original Simulation       11  24  2011 Yr    2 of   14 Time  20:55:19
  Original Simulation       11  25  2011 Yr    2 of   14 Time  20:55:19
  Original Simulation       11  26  2011 Yr    2 of   14 Time  20:55:19
  Original Simulation       11  27  2011 Yr    2 of   14 Time  20:55:19
  Original Simulation       11  28  2011 Yr    2 of   14 Time  20:55:19
  Original Simulation       11  29  2011 Yr    2 of   14 Time  20:55:20
  Original Simulation       11  30  2011 Yr    2 of   14 Time  20:55:20
  Original Simulation       12   1  2011 Yr    2 of   14 Time  20:55:20
  Original Simulation       12   2  2011 Yr    2 of   14 Time  20:55:20
  Original Simulation       12   3  2011 Yr    2 of   14 Time  20:55:20
  Original Simulation       12   4  2011 Yr    2 of   14 Time  20:55:20
  Original Simulation       12   5  2011 Yr    2 of   14 Time  20:55:20
  Original Simulation       12   6  2011 Yr    2 of   14 Time  20:55:20
  Original Simulation       12   7  2011 Yr    2 of   14 Time  20:55:20
  Original Simulation       12   8  2011 Yr    2 of   14 Time  20:55:20
  Original Simulation       12   9  2011 Yr    2 of   14 Time  20:55:20
  Original Simulation       12  10  2011 Yr    2 of   14 Time  20:55:21
  Original Simulation       12  11  2011 Yr    2 of   14 Time  20:55:21
  Original Simulation       12  12  2011 Yr    2 of   14 Time  20:55:21
  Original Simulation       12  13  2011 Yr    2 of   14 Time  20:55:21
  Original Simulation       12  14  2011 Yr    2 of   14 Time  20:55:21
  Original Simulation       12  15  2011 Yr    2 of   14 Time  20:55:21
  Original Simulation       12  16  2011 Yr    2 of   14 Time  20:55:21
  Original Simulation       12  17  2011 Yr    2 of   14 Time  20:55:21
  Original Simulation       12  18  2011 Yr    2 of   14 Time  20:55:21
  Original Simulation       12  19  2011 Yr    2 of   14 Time  20:55:21
  Original Simulation       12  20  2011 Yr    2 of   14 Time  20:55:21
  Original Simulation       12  21  2011 Yr    2 of   14 Time  20:55:22
  Original Simulation       12  22  2011 Yr    2 of   14 Time  20:55:22
  Original Simulation       12  23  2011 Yr    2 of   14 Time  20:55:22
  Original Simulation       12  24  2011 Yr    2 of   14 Time  20:55:22
  Original Simulation       12  25  2011 Yr    2 of   14 Time  20:55:22
  Original Simulation       12  26  2011 Yr    2 of   14 Time  20:55:22
  Original Simulation       12  27  2011 Yr    2 of   14 Time  20:55:22
  Original Simulation       12  28  2011 Yr    2 of   14 Time  20:55:22
  Original Simulation       12  29  2011 Yr    2 of   14 Time  20:55:22
  Original Simulation       12  30  2011 Yr    2 of   14 Time  20:55:22
  Original Simulation       12  31  2011 Yr    2 of   14 Time  20:55:22
  Original Simulation        1   1  2012 Yr    3 of   14 Time  20:55:22
  Original Simulation        1   2  2012 Yr    3 of   14 Time  20:55:23
  Original Simulation        1   3  2012 Yr    3 of   14 Time  20:55:23
  Original Simulation        1   4  2012 Yr    3 of   14 Time  20:55:23
  Original Simulation        1   5  2012 Yr    3 of   14 Time  20:55:23
  Original Simulation        1   6  2012 Yr    3 of   14 Time  20:55:23
  Original Simulation        1   7  2012 Yr    3 of   14 Time  20:55:23
  Original Simulation        1   8  2012 Yr    3 of   14 Time  20:55:23
  Original Simulation        1   9  2012 Yr    3 of   14 Time  20:55:23
  Original Simulation        1  10  2012 Yr    3 of   14 Time  20:55:23
  Original Simulation        1  11  2012 Yr    3 of   14 Time  20:55:23
  Original Simulation        1  12  2012 Yr    3 of   14 Time  20:55:23
  Original Simulation        1  13  2012 Yr    3 of   14 Time  20:55:23
  Original Simulation        1  14  2012 Yr    3 of   14 Time  20:55:24
  Original Simulation        1  15  2012 Yr    3 of   14 Time  20:55:24
  Original Simulation        1  16  2012 Yr    3 of   14 Time  20:55:24
  Original Simulation        1  17  2012 Yr    3 of   14 Time  20:55:24
  Original Simulation        1  18  2012 Yr    3 of   14 Time  20:55:24
  Original Simulation        1  19  2012 Yr    3 of   14 Time  20:55:24
  Original Simulation        1  20  2012 Yr    3 of   14 Time  20:55:24
  Original Simulation        1  21  2012 Yr    3 of   14 Time  20:55:24
  Original Simulation        1  22  2012 Yr    3 of   14 Time  20:55:24
  Original Simulation        1  23  2012 Yr    3 of   14 Time  20:55:24
  Original Simulation        1  24  2012 Yr    3 of   14 Time  20:55:24
  Original Simulation        1  25  2012 Yr    3 of   14 Time  20:55:24
  Original Simulation        1  26  2012 Yr    3 of   14 Time  20:55:25
  Original Simulation        1  27  2012 Yr    3 of   14 Time  20:55:25
  Original Simulation        1  28  2012 Yr    3 of   14 Time  20:55:25
  Original Simulation        1  29  2012 Yr    3 of   14 Time  20:55:25
  Original Simulation        1  30  2012 Yr    3 of   14 Time  20:55:25
  Original Simulation        1  31  2012 Yr    3 of   14 Time  20:55:25
  Original Simulation        2   1  2012 Yr    3 of   14 Time  20:55:25
  Original Simulation        2   2  2012 Yr    3 of   14 Time  20:55:25
  Original Simulation        2   3  2012 Yr    3 of   14 Time  20:55:25
  Original Simulation        2   4  2012 Yr    3 of   14 Time  20:55:25
  Original Simulation        2   5  2012 Yr    3 of   14 Time  20:55:25
  Original Simulation        2   6  2012 Yr    3 of   14 Time  20:55:25
  Original Simulation        2   7  2012 Yr    3 of   14 Time  20:55:26
  Original Simulation        2   8  2012 Yr    3 of   14 Time  20:55:26
  Original Simulation        2   9  2012 Yr    3 of   14 Time  20:55:26
  Original Simulation        2  10  2012 Yr    3 of   14 Time  20:55:26
  Original Simulation        2  11  2012 Yr    3 of   14 Time  20:55:26
  Original Simulation        2  12  2012 Yr    3 of   14 Time  20:55:26
  Original Simulation        2  13  2012 Yr    3 of   14 Time  20:55:26
  Original Simulation        2  14  2012 Yr    3 of   14 Time  20:55:26
  Original Simulation        2  15  2012 Yr    3 of   14 Time  20:55:26
  Original Simulation        2  16  2012 Yr    3 of   14 Time  20:55:26
  Original Simulation        2  17  2012 Yr    3 of   14 Time  20:55:26
  Original Simulation        2  18  2012 Yr    3 of   14 Time  20:55:26
  Original Simulation        2  19  2012 Yr    3 of   14 Time  20:55:27
  Original Simulation        2  20  2012 Yr    3 of   14 Time  20:55:27
  Original Simulation        2  21  2012 Yr    3 of   14 Time  20:55:27
  Original Simulation        2  22  2012 Yr    3 of   14 Time  20:55:27
  Original Simulation        2  23  2012 Yr    3 of   14 Time  20:55:27
  Original Simulation        2  24  2012 Yr    3 of   14 Time  20:55:27
  Original Simulation        2  25  2012 Yr    3 of   14 Time  20:55:27
  Original Simulation        2  26  2012 Yr    3 of   14 Time  20:55:27
  Original Simulation        2  27  2012 Yr    3 of   14 Time  20:55:27
  Original Simulation        2  28  2012 Yr    3 of   14 Time  20:55:27
  Original Simulation        2  29  2012 Yr    3 of   14 Time  20:55:27
  Original Simulation        3   1  2012 Yr    3 of   14 Time  20:55:27
  Original Simulation        3   2  2012 Yr    3 of   14 Time  20:55:28
  Original Simulation        3   3  2012 Yr    3 of   14 Time  20:55:28
  Original Simulation        3   4  2012 Yr    3 of   14 Time  20:55:28
  Original Simulation        3   5  2012 Yr    3 of   14 Time  20:55:28
  Original Simulation        3   6  2012 Yr    3 of   14 Time  20:55:28
  Original Simulation        3   7  2012 Yr    3 of   14 Time  20:55:28
  Original Simulation        3   8  2012 Yr    3 of   14 Time  20:55:28
  Original Simulation        3   9  2012 Yr    3 of   14 Time  20:55:28
  Original Simulation        3  10  2012 Yr    3 of   14 Time  20:55:28
  Original Simulation        3  11  2012 Yr    3 of   14 Time  20:55:28
  Original Simulation        3  12  2012 Yr    3 of   14 Time  20:55:28
  Original Simulation        3  13  2012 Yr    3 of   14 Time  20:55:28
  Original Simulation        3  14  2012 Yr    3 of   14 Time  20:55:29
  Original Simulation        3  15  2012 Yr    3 of   14 Time  20:55:29
  Original Simulation        3  16  2012 Yr    3 of   14 Time  20:55:29
  Original Simulation        3  17  2012 Yr    3 of   14 Time  20:55:29
  Original Simulation        3  18  2012 Yr    3 of   14 Time  20:55:29
  Original Simulation        3  19  2012 Yr    3 of   14 Time  20:55:29
  Original Simulation        3  20  2012 Yr    3 of   14 Time  20:55:29
  Original Simulation        3  21  2012 Yr    3 of   14 Time  20:55:29
  Original Simulation        3  22  2012 Yr    3 of   14 Time  20:55:29
  Original Simulation        3  23  2012 Yr    3 of   14 Time  20:55:29
  Original Simulation        3  24  2012 Yr    3 of   14 Time  20:55:29
  Original Simulation        3  25  2012 Yr    3 of   14 Time  20:55:30
  Original Simulation        3  26  2012 Yr    3 of   14 Time  20:55:30
  Original Simulation        3  27  2012 Yr    3 of   14 Time  20:55:30
  Original Simulation        3  28  2012 Yr    3 of   14 Time  20:55:30
  Original Simulation        3  29  2012 Yr    3 of   14 Time  20:55:30
  Original Simulation        3  30  2012 Yr    3 of   14 Time  20:55:30
  Original Simulation        3  31  2012 Yr    3 of   14 Time  20:55:30
  Original Simulation        4   1  2012 Yr    3 of   14 Time  20:55:30
  Original Simulation        4   2  2012 Yr    3 of   14 Time  20:55:30
  Original Simulation        4   3  2012 Yr    3 of   14 Time  20:55:30
  Original Simulation        4   4  2012 Yr    3 of   14 Time  20:55:30
  Original Simulation        4   5  2012 Yr    3 of   14 Time  20:55:30
  Original Simulation        4   6  2012 Yr    3 of   14 Time  20:55:31
  Original Simulation        4   7  2012 Yr    3 of   14 Time  20:55:31
  Original Simulation        4   8  2012 Yr    3 of   14 Time  20:55:31
  Original Simulation        4   9  2012 Yr    3 of   14 Time  20:55:31
  Original Simulation        4  10  2012 Yr    3 of   14 Time  20:55:31
  Original Simulation        4  11  2012 Yr    3 of   14 Time  20:55:31
  Original Simulation        4  12  2012 Yr    3 of   14 Time  20:55:31
  Original Simulation        4  13  2012 Yr    3 of   14 Time  20:55:31
  Original Simulation        4  14  2012 Yr    3 of   14 Time  20:55:31
  Original Simulation        4  15  2012 Yr    3 of   14 Time  20:55:31
  Original Simulation        4  16  2012 Yr    3 of   14 Time  20:55:31
  Original Simulation        4  17  2012 Yr    3 of   14 Time  20:55:31
  Original Simulation        4  18  2012 Yr    3 of   14 Time  20:55:32
  Original Simulation        4  19  2012 Yr    3 of   14 Time  20:55:32
  Original Simulation        4  20  2012 Yr    3 of   14 Time  20:55:32
  Original Simulation        4  21  2012 Yr    3 of   14 Time  20:55:32
  Original Simulation        4  22  2012 Yr    3 of   14 Time  20:55:32
  Original Simulation        4  23  2012 Yr    3 of   14 Time  20:55:32
  Original Simulation        4  24  2012 Yr    3 of   14 Time  20:55:32
  Original Simulation        4  25  2012 Yr    3 of   14 Time  20:55:32
  Original Simulation        4  26  2012 Yr    3 of   14 Time  20:55:32
  Original Simulation        4  27  2012 Yr    3 of   14 Time  20:55:32
  Original Simulation        4  28  2012 Yr    3 of   14 Time  20:55:32
  Original Simulation        4  29  2012 Yr    3 of   14 Time  20:55:33
  Original Simulation        4  30  2012 Yr    3 of   14 Time  20:55:33
  Original Simulation        5   1  2012 Yr    3 of   14 Time  20:55:33
  Original Simulation        5   2  2012 Yr    3 of   14 Time  20:55:33
  Original Simulation        5   3  2012 Yr    3 of   14 Time  20:55:33
  Original Simulation        5   4  2012 Yr    3 of   14 Time  20:55:33
  Original Simulation        5   5  2012 Yr    3 of   14 Time  20:55:33
  Original Simulation        5   6  2012 Yr    3 of   14 Time  20:55:33
  Original Simulation        5   7  2012 Yr    3 of   14 Time  20:55:33
  Original Simulation        5   8  2012 Yr    3 of   14 Time  20:55:33
  Original Simulation        5   9  2012 Yr    3 of   14 Time  20:55:33
  Original Simulation        5  10  2012 Yr    3 of   14 Time  20:55:33
  Original Simulation        5  11  2012 Yr    3 of   14 Time  20:55:34
  Original Simulation        5  12  2012 Yr    3 of   14 Time  20:55:34
  Original Simulation        5  13  2012 Yr    3 of   14 Time  20:55:34
  Original Simulation        5  14  2012 Yr    3 of   14 Time  20:55:34
  Original Simulation        5  15  2012 Yr    3 of   14 Time  20:55:34
  Original Simulation        5  16  2012 Yr    3 of   14 Time  20:55:34
  Original Simulation        5  17  2012 Yr    3 of   14 Time  20:55:34
  Original Simulation        5  18  2012 Yr    3 of   14 Time  20:55:34
  Original Simulation        5  19  2012 Yr    3 of   14 Time  20:55:34
  Original Simulation        5  20  2012 Yr    3 of   14 Time  20:55:34
  Original Simulation        5  21  2012 Yr    3 of   14 Time  20:55:34
  Original Simulation        5  22  2012 Yr    3 of   14 Time  20:55:35
  Original Simulation        5  23  2012 Yr    3 of   14 Time  20:55:35
  Original Simulation        5  24  2012 Yr    3 of   14 Time  20:55:35
  Original Simulation        5  25  2012 Yr    3 of   14 Time  20:55:35
  Original Simulation        5  26  2012 Yr    3 of   14 Time  20:55:35
  Original Simulation        5  27  2012 Yr    3 of   14 Time  20:55:35
  Original Simulation        5  28  2012 Yr    3 of   14 Time  20:55:35
  Original Simulation        5  29  2012 Yr    3 of   14 Time  20:55:35
  Original Simulation        5  30  2012 Yr    3 of   14 Time  20:55:35
  Original Simulation        5  31  2012 Yr    3 of   14 Time  20:55:35
  Original Simulation        6   1  2012 Yr    3 of   14 Time  20:55:35
  Original Simulation        6   2  2012 Yr    3 of   14 Time  20:55:36
  Original Simulation        6   3  2012 Yr    3 of   14 Time  20:55:36
  Original Simulation        6   4  2012 Yr    3 of   14 Time  20:55:36
  Original Simulation        6   5  2012 Yr    3 of   14 Time  20:55:36
  Original Simulation        6   6  2012 Yr    3 of   14 Time  20:55:36
  Original Simulation        6   7  2012 Yr    3 of   14 Time  20:55:36
  Original Simulation        6   8  2012 Yr    3 of   14 Time  20:55:36
  Original Simulation        6   9  2012 Yr    3 of   14 Time  20:55:36
  Original Simulation        6  10  2012 Yr    3 of   14 Time  20:55:36
  Original Simulation        6  11  2012 Yr    3 of   14 Time  20:55:36
  Original Simulation        6  12  2012 Yr    3 of   14 Time  20:55:37
  Original Simulation        6  13  2012 Yr    3 of   14 Time  20:55:37
  Original Simulation        6  14  2012 Yr    3 of   14 Time  20:55:37
  Original Simulation        6  15  2012 Yr    3 of   14 Time  20:55:37
  Original Simulation        6  16  2012 Yr    3 of   14 Time  20:55:37
  Original Simulation        6  17  2012 Yr    3 of   14 Time  20:55:37
  Original Simulation        6  18  2012 Yr    3 of   14 Time  20:55:37
  Original Simulation        6  19  2012 Yr    3 of   14 Time  20:55:37
  Original Simulation        6  20  2012 Yr    3 of   14 Time  20:55:37
  Original Simulation        6  21  2012 Yr    3 of   14 Time  20:55:37
  Original Simulation        6  22  2012 Yr    3 of   14 Time  20:55:37
  Original Simulation        6  23  2012 Yr    3 of   14 Time  20:55:37
  Original Simulation        6  24  2012 Yr    3 of   14 Time  20:55:38
  Original Simulation        6  25  2012 Yr    3 of   14 Time  20:55:38
  Original Simulation        6  26  2012 Yr    3 of   14 Time  20:55:38
  Original Simulation        6  27  2012 Yr    3 of   14 Time  20:55:38
  Original Simulation        6  28  2012 Yr    3 of   14 Time  20:55:38
  Original Simulation        6  29  2012 Yr    3 of   14 Time  20:55:38
  Original Simulation        6  30  2012 Yr    3 of   14 Time  20:55:38
  Original Simulation        7   1  2012 Yr    3 of   14 Time  20:55:38
  Original Simulation        7   2  2012 Yr    3 of   14 Time  20:55:38
  Original Simulation        7   3  2012 Yr    3 of   14 Time  20:55:38
  Original Simulation        7   4  2012 Yr    3 of   14 Time  20:55:39
  Original Simulation        7   5  2012 Yr    3 of   14 Time  20:55:39
  Original Simulation        7   6  2012 Yr    3 of   14 Time  20:55:39
  Original Simulation        7   7  2012 Yr    3 of   14 Time  20:55:39
  Original Simulation        7   8  2012 Yr    3 of   14 Time  20:55:39
  Original Simulation        7   9  2012 Yr    3 of   14 Time  20:55:39
  Original Simulation        7  10  2012 Yr    3 of   14 Time  20:55:39
  Original Simulation        7  11  2012 Yr    3 of   14 Time  20:55:39
  Original Simulation        7  12  2012 Yr    3 of   14 Time  20:55:39
  Original Simulation        7  13  2012 Yr    3 of   14 Time  20:55:39
  Original Simulation        7  14  2012 Yr    3 of   14 Time  20:55:39
  Original Simulation        7  15  2012 Yr    3 of   14 Time  20:55:40
  Original Simulation        7  16  2012 Yr    3 of   14 Time  20:55:40
  Original Simulation        7  17  2012 Yr    3 of   14 Time  20:55:40
  Original Simulation        7  18  2012 Yr    3 of   14 Time  20:55:40
  Original Simulation        7  19  2012 Yr    3 of   14 Time  20:55:40
  Original Simulation        7  20  2012 Yr    3 of   14 Time  20:55:40
  Original Simulation        7  21  2012 Yr    3 of   14 Time  20:55:40
  Original Simulation        7  22  2012 Yr    3 of   14 Time  20:55:40
  Original Simulation        7  23  2012 Yr    3 of   14 Time  20:55:40
  Original Simulation        7  24  2012 Yr    3 of   14 Time  20:55:40
  Original Simulation        7  25  2012 Yr    3 of   14 Time  20:55:40
  Original Simulation        7  26  2012 Yr    3 of   14 Time  20:55:40
  Original Simulation        7  27  2012 Yr    3 of   14 Time  20:55:41
  Original Simulation        7  28  2012 Yr    3 of   14 Time  20:55:41
  Original Simulation        7  29  2012 Yr    3 of   14 Time  20:55:41
  Original Simulation        7  30  2012 Yr    3 of   14 Time  20:55:41
  Original Simulation        7  31  2012 Yr    3 of   14 Time  20:55:41
  Original Simulation        8   1  2012 Yr    3 of   14 Time  20:55:41
  Original Simulation        8   2  2012 Yr    3 of   14 Time  20:55:41
  Original Simulation        8   3  2012 Yr    3 of   14 Time  20:55:41
  Original Simulation        8   4  2012 Yr    3 of   14 Time  20:55:41
  Original Simulation        8   5  2012 Yr    3 of   14 Time  20:55:41
  Original Simulation        8   6  2012 Yr    3 of   14 Time  20:55:41
  Original Simulation        8   7  2012 Yr    3 of   14 Time  20:55:42
  Original Simulation        8   8  2012 Yr    3 of   14 Time  20:55:42
  Original Simulation        8   9  2012 Yr    3 of   14 Time  20:55:42
  Original Simulation        8  10  2012 Yr    3 of   14 Time  20:55:42
  Original Simulation        8  11  2012 Yr    3 of   14 Time  20:55:42
  Original Simulation        8  12  2012 Yr    3 of   14 Time  20:55:42
  Original Simulation        8  13  2012 Yr    3 of   14 Time  20:55:42
  Original Simulation        8  14  2012 Yr    3 of   14 Time  20:55:42
  Original Simulation        8  15  2012 Yr    3 of   14 Time  20:55:42
  Original Simulation        8  16  2012 Yr    3 of   14 Time  20:55:42
  Original Simulation        8  17  2012 Yr    3 of   14 Time  20:55:42
  Original Simulation        8  18  2012 Yr    3 of   14 Time  20:55:43
  Original Simulation        8  19  2012 Yr    3 of   14 Time  20:55:43
  Original Simulation        8  20  2012 Yr    3 of   14 Time  20:55:43
  Original Simulation        8  21  2012 Yr    3 of   14 Time  20:55:43
  Original Simulation        8  22  2012 Yr    3 of   14 Time  20:55:43
  Original Simulation        8  23  2012 Yr    3 of   14 Time  20:55:43
  Original Simulation        8  24  2012 Yr    3 of   14 Time  20:55:43
  Original Simulation        8  25  2012 Yr    3 of   14 Time  20:55:43
  Original Simulation        8  26  2012 Yr    3 of   14 Time  20:55:43
  Original Simulation        8  27  2012 Yr    3 of   14 Time  20:55:43
  Original Simulation        8  28  2012 Yr    3 of   14 Time  20:55:43
  Original Simulation        8  29  2012 Yr    3 of   14 Time  20:55:44
  Original Simulation        8  30  2012 Yr    3 of   14 Time  20:55:44
  Original Simulation        8  31  2012 Yr    3 of   14 Time  20:55:44
  Original Simulation        9   1  2012 Yr    3 of   14 Time  20:55:44
  Original Simulation        9   2  2012 Yr    3 of   14 Time  20:55:44
  Original Simulation        9   3  2012 Yr    3 of   14 Time  20:55:44
  Original Simulation        9   4  2012 Yr    3 of   14 Time  20:55:44
  Original Simulation        9   5  2012 Yr    3 of   14 Time  20:55:44
  Original Simulation        9   6  2012 Yr    3 of   14 Time  20:55:44
  Original Simulation        9   7  2012 Yr    3 of   14 Time  20:55:44
  Original Simulation        9   8  2012 Yr    3 of   14 Time  20:55:45
  Original Simulation        9   9  2012 Yr    3 of   14 Time  20:55:45
  Original Simulation        9  10  2012 Yr    3 of   14 Time  20:55:45
  Original Simulation        9  11  2012 Yr    3 of   14 Time  20:55:45
  Original Simulation        9  12  2012 Yr    3 of   14 Time  20:55:45
  Original Simulation        9  13  2012 Yr    3 of   14 Time  20:55:45
  Original Simulation        9  14  2012 Yr    3 of   14 Time  20:55:45
  Original Simulation        9  15  2012 Yr    3 of   14 Time  20:55:45
  Original Simulation        9  16  2012 Yr    3 of   14 Time  20:55:45
  Original Simulation        9  17  2012 Yr    3 of   14 Time  20:55:45
  Original Simulation        9  18  2012 Yr    3 of   14 Time  20:55:45
  Original Simulation        9  19  2012 Yr    3 of   14 Time  20:55:46
  Original Simulation        9  20  2012 Yr    3 of   14 Time  20:55:46
  Original Simulation        9  21  2012 Yr    3 of   14 Time  20:55:46
  Original Simulation        9  22  2012 Yr    3 of   14 Time  20:55:46
  Original Simulation        9  23  2012 Yr    3 of   14 Time  20:55:46
  Original Simulation        9  24  2012 Yr    3 of   14 Time  20:55:46
  Original Simulation        9  25  2012 Yr    3 of   14 Time  20:55:46
  Original Simulation        9  26  2012 Yr    3 of   14 Time  20:55:46
  Original Simulation        9  27  2012 Yr    3 of   14 Time  20:55:46
  Original Simulation        9  28  2012 Yr    3 of   14 Time  20:55:46
  Original Simulation        9  29  2012 Yr    3 of   14 Time  20:55:46
  Original Simulation        9  30  2012 Yr    3 of   14 Time  20:55:47
  Original Simulation       10   1  2012 Yr    3 of   14 Time  20:55:47
  Original Simulation       10   2  2012 Yr    3 of   14 Time  20:55:47
  Original Simulation       10   3  2012 Yr    3 of   14 Time  20:55:47
  Original Simulation       10   4  2012 Yr    3 of   14 Time  20:55:47
  Original Simulation       10   5  2012 Yr    3 of   14 Time  20:55:47
  Original Simulation       10   6  2012 Yr    3 of   14 Time  20:55:47
  Original Simulation       10   7  2012 Yr    3 of   14 Time  20:55:47
  Original Simulation       10   8  2012 Yr    3 of   14 Time  20:55:47
  Original Simulation       10   9  2012 Yr    3 of   14 Time  20:55:47
  Original Simulation       10  10  2012 Yr    3 of   14 Time  20:55:47
  Original Simulation       10  11  2012 Yr    3 of   14 Time  20:55:48
  Original Simulation       10  12  2012 Yr    3 of   14 Time  20:55:48
  Original Simulation       10  13  2012 Yr    3 of   14 Time  20:55:48
  Original Simulation       10  14  2012 Yr    3 of   14 Time  20:55:48
  Original Simulation       10  15  2012 Yr    3 of   14 Time  20:55:48
  Original Simulation       10  16  2012 Yr    3 of   14 Time  20:55:48
  Original Simulation       10  17  2012 Yr    3 of   14 Time  20:55:48
  Original Simulation       10  18  2012 Yr    3 of   14 Time  20:55:48
  Original Simulation       10  19  2012 Yr    3 of   14 Time  20:55:48
  Original Simulation       10  20  2012 Yr    3 of   14 Time  20:55:48
  Original Simulation       10  21  2012 Yr    3 of   14 Time  20:55:48
  Original Simulation       10  22  2012 Yr    3 of   14 Time  20:55:49
  Original Simulation       10  23  2012 Yr    3 of   14 Time  20:55:49
  Original Simulation       10  24  2012 Yr    3 of   14 Time  20:55:49
  Original Simulation       10  25  2012 Yr    3 of   14 Time  20:55:49
  Original Simulation       10  26  2012 Yr    3 of   14 Time  20:55:49
  Original Simulation       10  27  2012 Yr    3 of   14 Time  20:55:49
  Original Simulation       10  28  2012 Yr    3 of   14 Time  20:55:49
  Original Simulation       10  29  2012 Yr    3 of   14 Time  20:55:49
  Original Simulation       10  30  2012 Yr    3 of   14 Time  20:55:49
  Original Simulation       10  31  2012 Yr    3 of   14 Time  20:55:49
  Original Simulation       11   1  2012 Yr    3 of   14 Time  20:55:49
  Original Simulation       11   2  2012 Yr    3 of   14 Time  20:55:50
  Original Simulation       11   3  2012 Yr    3 of   14 Time  20:55:50
  Original Simulation       11   4  2012 Yr    3 of   14 Time  20:55:50
  Original Simulation       11   5  2012 Yr    3 of   14 Time  20:55:50
  Original Simulation       11   6  2012 Yr    3 of   14 Time  20:55:50
  Original Simulation       11   7  2012 Yr    3 of   14 Time  20:55:50
  Original Simulation       11   8  2012 Yr    3 of   14 Time  20:55:50
  Original Simulation       11   9  2012 Yr    3 of   14 Time  20:55:50
  Original Simulation       11  10  2012 Yr    3 of   14 Time  20:55:50
  Original Simulation       11  11  2012 Yr    3 of   14 Time  20:55:50
  Original Simulation       11  12  2012 Yr    3 of   14 Time  20:55:50
  Original Simulation       11  13  2012 Yr    3 of   14 Time  20:55:50
  Original Simulation       11  14  2012 Yr    3 of   14 Time  20:55:51
  Original Simulation       11  15  2012 Yr    3 of   14 Time  20:55:51
  Original Simulation       11  16  2012 Yr    3 of   14 Time  20:55:51
  Original Simulation       11  17  2012 Yr    3 of   14 Time  20:55:51
  Original Simulation       11  18  2012 Yr    3 of   14 Time  20:55:51
  Original Simulation       11  19  2012 Yr    3 of   14 Time  20:55:51
  Original Simulation       11  20  2012 Yr    3 of   14 Time  20:55:51
  Original Simulation       11  21  2012 Yr    3 of   14 Time  20:55:51
  Original Simulation       11  22  2012 Yr    3 of   14 Time  20:55:51
  Original Simulation       11  23  2012 Yr    3 of   14 Time  20:55:51
  Original Simulation       11  24  2012 Yr    3 of   14 Time  20:55:51
  Original Simulation       11  25  2012 Yr    3 of   14 Time  20:55:52
  Original Simulation       11  26  2012 Yr    3 of   14 Time  20:55:52
  Original Simulation       11  27  2012 Yr    3 of   14 Time  20:55:52
  Original Simulation       11  28  2012 Yr    3 of   14 Time  20:55:52
  Original Simulation       11  29  2012 Yr    3 of   14 Time  20:55:52
  Original Simulation       11  30  2012 Yr    3 of   14 Time  20:55:52
  Original Simulation       12   1  2012 Yr    3 of   14 Time  20:55:52
  Original Simulation       12   2  2012 Yr    3 of   14 Time  20:55:52
  Original Simulation       12   3  2012 Yr    3 of   14 Time  20:55:52
  Original Simulation       12   4  2012 Yr    3 of   14 Time  20:55:52
  Original Simulation       12   5  2012 Yr    3 of   14 Time  20:55:52
  Original Simulation       12   6  2012 Yr    3 of   14 Time  20:55:53
  Original Simulation       12   7  2012 Yr    3 of   14 Time  20:55:53
  Original Simulation       12   8  2012 Yr    3 of   14 Time  20:55:53
  Original Simulation       12   9  2012 Yr    3 of   14 Time  20:55:53
  Original Simulation       12  10  2012 Yr    3 of   14 Time  20:55:53
  Original Simulation       12  11  2012 Yr    3 of   14 Time  20:55:53
  Original Simulation       12  12  2012 Yr    3 of   14 Time  20:55:53
  Original Simulation       12  13  2012 Yr    3 of   14 Time  20:55:53
  Original Simulation       12  14  2012 Yr    3 of   14 Time  20:55:53
  Original Simulation       12  15  2012 Yr    3 of   14 Time  20:55:53
  Original Simulation       12  16  2012 Yr    3 of   14 Time  20:55:53
  Original Simulation       12  17  2012 Yr    3 of   14 Time  20:55:54
  Original Simulation       12  18  2012 Yr    3 of   14 Time  20:55:54
  Original Simulation       12  19  2012 Yr    3 of   14 Time  20:55:54
  Original Simulation       12  20  2012 Yr    3 of   14 Time  20:55:54
  Original Simulation       12  21  2012 Yr    3 of   14 Time  20:55:54
  Original Simulation       12  22  2012 Yr    3 of   14 Time  20:55:54
  Original Simulation       12  23  2012 Yr    3 of   14 Time  20:55:54
  Original Simulation       12  24  2012 Yr    3 of   14 Time  20:55:54
  Original Simulation       12  25  2012 Yr    3 of   14 Time  20:55:54
  Original Simulation       12  26  2012 Yr    3 of   14 Time  20:55:54
  Original Simulation       12  27  2012 Yr    3 of   14 Time  20:55:54
  Original Simulation       12  28  2012 Yr    3 of   14 Time  20:55:54
  Original Simulation       12  29  2012 Yr    3 of   14 Time  20:55:55
  Original Simulation       12  30  2012 Yr    3 of   14 Time  20:55:55
  Original Simulation       12  31  2012 Yr    3 of   14 Time  20:55:55
  Original Simulation        1   1  2013 Yr    4 of   14 Time  20:55:55
  Original Simulation        1   2  2013 Yr    4 of   14 Time  20:55:55
  Original Simulation        1   3  2013 Yr    4 of   14 Time  20:55:55
  Original Simulation        1   4  2013 Yr    4 of   14 Time  20:55:55
  Original Simulation        1   5  2013 Yr    4 of   14 Time  20:55:55
  Original Simulation        1   6  2013 Yr    4 of   14 Time  20:55:55
[...]
  Original Simulation        3  31  2023 Yr   14 of   14 Time  21: 1:35
  Original Simulation        4   1  2023 Yr   14 of   14 Time  21: 1:36
  Original Simulation        4   2  2023 Yr   14 of   14 Time  21: 1:36
  Original Simulation        4   3  2023 Yr   14 of   14 Time  21: 1:36
  Original Simulation        4   4  2023 Yr   14 of   14 Time  21: 1:36
  Original Simulation        4   5  2023 Yr   14 of   14 Time  21: 1:36
  Original Simulation        4   6  2023 Yr   14 of   14 Time  21: 1:36
  Original Simulation        4   7  2023 Yr   14 of   14 Time  21: 1:36
  Original Simulation        4   8  2023 Yr   14 of   14 Time  21: 1:36
  Original Simulation        4   9  2023 Yr   14 of   14 Time  21: 1:36
  Original Simulation        4  10  2023 Yr   14 of   14 Time  21: 1:36
  Original Simulation        4  11  2023 Yr   14 of   14 Time  21: 1:36
  Original Simulation        4  12  2023 Yr   14 of   14 Time  21: 1:37
  Original Simulation        4  13  2023 Yr   14 of   14 Time  21: 1:37
  Original Simulation        4  14  2023 Yr   14 of   14 Time  21: 1:37
  Original Simulation        4  15  2023 Yr   14 of   14 Time  21: 1:37
  Original Simulation        4  16  2023 Yr   14 of   14 Time  21: 1:37
  Original Simulation        4  17  2023 Yr   14 of   14 Time  21: 1:37
  Original Simulation        4  18  2023 Yr   14 of   14 Time  21: 1:37
  Original Simulation        4  19  2023 Yr   14 of   14 Time  21: 1:37
  Original Simulation        4  20  2023 Yr   14 of   14 Time  21: 1:37
  Original Simulation        4  21  2023 Yr   14 of   14 Time  21: 1:37
  Original Simulation        4  22  2023 Yr   14 of   14 Time  21: 1:37
  Original Simulation        4  23  2023 Yr   14 of   14 Time  21: 1:37
  Original Simulation        4  24  2023 Yr   14 of   14 Time  21: 1:38
  Original Simulation        4  25  2023 Yr   14 of   14 Time  21: 1:38
  Original Simulation        4  26  2023 Yr   14 of   14 Time  21: 1:38
  Original Simulation        4  27  2023 Yr   14 of   14 Time  21: 1:38
  Original Simulation        4  28  2023 Yr   14 of   14 Time  21: 1:38
  Original Simulation        4  29  2023 Yr   14 of   14 Time  21: 1:38
  Original Simulation        4  30  2023 Yr   14 of   14 Time  21: 1:38
  Original Simulation        5   1  2023 Yr   14 of   14 Time  21: 1:38
  Original Simulation        5   2  2023 Yr   14 of   14 Time  21: 1:38
  Original Simulation        5   3  2023 Yr   14 of   14 Time  21: 1:38
  Original Simulation        5   4  2023 Yr   14 of   14 Time  21: 1:38
  Original Simulation        5   5  2023 Yr   14 of   14 Time  21: 1:39
  Original Simulation        5   6  2023 Yr   14 of   14 Time  21: 1:39
  Original Simulation        5   7  2023 Yr   14 of   14 Time  21: 1:39
  Original Simulation        5   8  2023 Yr   14 of   14 Time  21: 1:39
  Original Simulation        5   9  2023 Yr   14 of   14 Time  21: 1:39
  Original Simulation        5  10  2023 Yr   14 of   14 Time  21: 1:39
  Original Simulation        5  11  2023 Yr   14 of   14 Time  21: 1:39
  Original Simulation        5  12  2023 Yr   14 of   14 Time  21: 1:39
  Original Simulation        5  13  2023 Yr   14 of   14 Time  21: 1:39
  Original Simulation        5  14  2023 Yr   14 of   14 Time  21: 1:39
  Original Simulation        5  15  2023 Yr   14 of   14 Time  21: 1:39
  Original Simulation        5  16  2023 Yr   14 of   14 Time  21: 1:40
  Original Simulation        5  17  2023 Yr   14 of   14 Time  21: 1:40
  Original Simulation        5  18  2023 Yr   14 of   14 Time  21: 1:40
  Original Simulation        5  19  2023 Yr   14 of   14 Time  21: 1:40
  Original Simulation        5  20  2023 Yr   14 of   14 Time  21: 1:40
  Original Simulation        5  21  2023 Yr   14 of   14 Time  21: 1:40
  Original Simulation        5  22  2023 Yr   14 of   14 Time  21: 1:40
  Original Simulation        5  23  2023 Yr   14 of   14 Time  21: 1:40
  Original Simulation        5  24  2023 Yr   14 of   14 Time  21: 1:40
  Original Simulation        5  25  2023 Yr   14 of   14 Time  21: 1:40
  Original Simulation        5  26  2023 Yr   14 of   14 Time  21: 1:41
  Original Simulation        5  27  2023 Yr   14 of   14 Time  21: 1:41
  Original Simulation        5  28  2023 Yr   14 of   14 Time  21: 1:41
  Original Simulation        5  29  2023 Yr   14 of   14 Time  21: 1:41
  Original Simulation        5  30  2023 Yr   14 of   14 Time  21: 1:41
  Original Simulation        5  31  2023 Yr   14 of   14 Time  21: 1:41
  Original Simulation        6   1  2023 Yr   14 of   14 Time  21: 1:41
  Original Simulation        6   2  2023 Yr   14 of   14 Time  21: 1:41
  Original Simulation        6   3  2023 Yr   14 of   14 Time  21: 1:41
  Original Simulation        6   4  2023 Yr   14 of   14 Time  21: 1:41
  Original Simulation        6   5  2023 Yr   14 of   14 Time  21: 1:41
  Original Simulation        6   6  2023 Yr   14 of   14 Time  21: 1:42
  Original Simulation        6   7  2023 Yr   14 of   14 Time  21: 1:42
  Original Simulation        6   8  2023 Yr   14 of   14 Time  21: 1:42
  Original Simulation        6   9  2023 Yr   14 of   14 Time  21: 1:42
  Original Simulation        6  10  2023 Yr   14 of   14 Time  21: 1:42
  Original Simulation        6  11  2023 Yr   14 of   14 Time  21: 1:42
  Original Simulation        6  12  2023 Yr   14 of   14 Time  21: 1:42
  Original Simulation        6  13  2023 Yr   14 of   14 Time  21: 1:42
  Original Simulation        6  14  2023 Yr   14 of   14 Time  21: 1:42
  Original Simulation        6  15  2023 Yr   14 of   14 Time  21: 1:42
  Original Simulation        6  16  2023 Yr   14 of   14 Time  21: 1:42
  Original Simulation        6  17  2023 Yr   14 of   14 Time  21: 1:43
  Original Simulation        6  18  2023 Yr   14 of   14 Time  21: 1:43
  Original Simulation        6  19  2023 Yr   14 of   14 Time  21: 1:43
  Original Simulation        6  20  2023 Yr   14 of   14 Time  21: 1:43
  Original Simulation        6  21  2023 Yr   14 of   14 Time  21: 1:43
  Original Simulation        6  22  2023 Yr   14 of   14 Time  21: 1:43
  Original Simulation        6  23  2023 Yr   14 of   14 Time  21: 1:43
  Original Simulation        6  24  2023 Yr   14 of   14 Time  21: 1:43
  Original Simulation        6  25  2023 Yr   14 of   14 Time  21: 1:43
  Original Simulation        6  26  2023 Yr   14 of   14 Time  21: 1:43
  Original Simulation        6  27  2023 Yr   14 of   14 Time  21: 1:44
  Original Simulation        6  28  2023 Yr   14 of   14 Time  21: 1:44
  Original Simulation        6  29  2023 Yr   14 of   14 Time  21: 1:44
  Original Simulation        6  30  2023 Yr   14 of   14 Time  21: 1:44
  Original Simulation        7   1  2023 Yr   14 of   14 Time  21: 1:44
  Original Simulation        7   2  2023 Yr   14 of   14 Time  21: 1:44
  Original Simulation        7   3  2023 Yr   14 of   14 Time  21: 1:44
  Original Simulation        7   4  2023 Yr   14 of   14 Time  21: 1:44
  Original Simulation        7   5  2023 Yr   14 of   14 Time  21: 1:44
  Original Simulation        7   6  2023 Yr   14 of   14 Time  21: 1:44
  Original Simulation        7   7  2023 Yr   14 of   14 Time  21: 1:44
  Original Simulation        7   8  2023 Yr   14 of   14 Time  21: 1:45
  Original Simulation        7   9  2023 Yr   14 of   14 Time  21: 1:45
  Original Simulation        7  10  2023 Yr   14 of   14 Time  21: 1:45
  Original Simulation        7  11  2023 Yr   14 of   14 Time  21: 1:45
  Original Simulation        7  12  2023 Yr   14 of   14 Time  21: 1:45
  Original Simulation        7  13  2023 Yr   14 of   14 Time  21: 1:45
  Original Simulation        7  14  2023 Yr   14 of   14 Time  21: 1:45
  Original Simulation        7  15  2023 Yr   14 of   14 Time  21: 1:45
  Original Simulation        7  16  2023 Yr   14 of   14 Time  21: 1:45
  Original Simulation        7  17  2023 Yr   14 of   14 Time  21: 1:45
  Original Simulation        7  18  2023 Yr   14 of   14 Time  21: 1:45
  Original Simulation        7  19  2023 Yr   14 of   14 Time  21: 1:46
  Original Simulation        7  20  2023 Yr   14 of   14 Time  21: 1:46
  Original Simulation        7  21  2023 Yr   14 of   14 Time  21: 1:46
  Original Simulation        7  22  2023 Yr   14 of   14 Time  21: 1:46
  Original Simulation        7  23  2023 Yr   14 of   14 Time  21: 1:46
  Original Simulation        7  24  2023 Yr   14 of   14 Time  21: 1:46
  Original Simulation        7  25  2023 Yr   14 of   14 Time  21: 1:46
  Original Simulation        7  26  2023 Yr   14 of   14 Time  21: 1:46
  Original Simulation        7  27  2023 Yr   14 of   14 Time  21: 1:46
  Original Simulation        7  28  2023 Yr   14 of   14 Time  21: 1:46
  Original Simulation        7  29  2023 Yr   14 of   14 Time  21: 1:47
  Original Simulation        7  30  2023 Yr   14 of   14 Time  21: 1:47
  Original Simulation        7  31  2023 Yr   14 of   14 Time  21: 1:47
  Original Simulation        8   1  2023 Yr   14 of   14 Time  21: 1:47
  Original Simulation        8   2  2023 Yr   14 of   14 Time  21: 1:47
  Original Simulation        8   3  2023 Yr   14 of   14 Time  21: 1:47
  Original Simulation        8   4  2023 Yr   14 of   14 Time  21: 1:47
  Original Simulation        8   5  2023 Yr   14 of   14 Time  21: 1:47
  Original Simulation        8   6  2023 Yr   14 of   14 Time  21: 1:47
  Original Simulation        8   7  2023 Yr   14 of   14 Time  21: 1:47
  Original Simulation        8   8  2023 Yr   14 of   14 Time  21: 1:47
  Original Simulation        8   9  2023 Yr   14 of   14 Time  21: 1:48
  Original Simulation        8  10  2023 Yr   14 of   14 Time  21: 1:48
  Original Simulation        8  11  2023 Yr   14 of   14 Time  21: 1:48
  Original Simulation        8  12  2023 Yr   14 of   14 Time  21: 1:48
  Original Simulation        8  13  2023 Yr   14 of   14 Time  21: 1:48
  Original Simulation        8  14  2023 Yr   14 of   14 Time  21: 1:48
  Original Simulation        8  15  2023 Yr   14 of   14 Time  21: 1:48
  Original Simulation        8  16  2023 Yr   14 of   14 Time  21: 1:48
  Original Simulation        8  17  2023 Yr   14 of   14 Time  21: 1:48
  Original Simulation        8  18  2023 Yr   14 of   14 Time  21: 1:48
  Original Simulation        8  19  2023 Yr   14 of   14 Time  21: 1:48
  Original Simulation        8  20  2023 Yr   14 of   14 Time  21: 1:49
  Original Simulation        8  21  2023 Yr   14 of   14 Time  21: 1:49
  Original Simulation        8  22  2023 Yr   14 of   14 Time  21: 1:49
  Original Simulation        8  23  2023 Yr   14 of   14 Time  21: 1:49
  Original Simulation        8  24  2023 Yr   14 of   14 Time  21: 1:49
  Original Simulation        8  25  2023 Yr   14 of   14 Time  21: 1:49
  Original Simulation        8  26  2023 Yr   14 of   14 Time  21: 1:49
  Original Simulation        8  27  2023 Yr   14 of   14 Time  21: 1:49
  Original Simulation        8  28  2023 Yr   14 of   14 Time  21: 1:49
  Original Simulation        8  29  2023 Yr   14 of   14 Time  21: 1:49
  Original Simulation        8  30  2023 Yr   14 of   14 Time  21: 1:50
  Original Simulation        8  31  2023 Yr   14 of   14 Time  21: 1:50
  Original Simulation        9   1  2023 Yr   14 of   14 Time  21: 1:50
  Original Simulation        9   2  2023 Yr   14 of   14 Time  21: 1:50
  Original Simulation        9   3  2023 Yr   14 of   14 Time  21: 1:50
  Original Simulation        9   4  2023 Yr   14 of   14 Time  21: 1:50
  Original Simulation        9   5  2023 Yr   14 of   14 Time  21: 1:50
  Original Simulation        9   6  2023 Yr   14 of   14 Time  21: 1:50
  Original Simulation        9   7  2023 Yr   14 of   14 Time  21: 1:50
  Original Simulation        9   8  2023 Yr   14 of   14 Time  21: 1:50
  Original Simulation        9   9  2023 Yr   14 of   14 Time  21: 1:50
  Original Simulation        9  10  2023 Yr   14 of   14 Time  21: 1:51
  Original Simulation        9  11  2023 Yr   14 of   14 Time  21: 1:51
  Original Simulation        9  12  2023 Yr   14 of   14 Time  21: 1:51
  Original Simulation        9  13  2023 Yr   14 of   14 Time  21: 1:51
  Original Simulation        9  14  2023 Yr   14 of   14 Time  21: 1:51
  Original Simulation        9  15  2023 Yr   14 of   14 Time  21: 1:51
  Original Simulation        9  16  2023 Yr   14 of   14 Time  21: 1:51
  Original Simulation        9  17  2023 Yr   14 of   14 Time  21: 1:51
  Original Simulation        9  18  2023 Yr   14 of   14 Time  21: 1:51
  Original Simulation        9  19  2023 Yr   14 of   14 Time  21: 1:51
  Original Simulation        9  20  2023 Yr   14 of   14 Time  21: 1:52
  Original Simulation        9  21  2023 Yr   14 of   14 Time  21: 1:52
  Original Simulation        9  22  2023 Yr   14 of   14 Time  21: 1:52
  Original Simulation        9  23  2023 Yr   14 of   14 Time  21: 1:52
  Original Simulation        9  24  2023 Yr   14 of   14 Time  21: 1:52
  Original Simulation        9  25  2023 Yr   14 of   14 Time  21: 1:52
  Original Simulation        9  26  2023 Yr   14 of   14 Time  21: 1:52
  Original Simulation        9  27  2023 Yr   14 of   14 Time  21: 1:52
  Original Simulation        9  28  2023 Yr   14 of   14 Time  21: 1:52
  Original Simulation        9  29  2023 Yr   14 of   14 Time  21: 1:52
  Original Simulation        9  30  2023 Yr   14 of   14 Time  21: 1:53
  Original Simulation       10   1  2023 Yr   14 of   14 Time  21: 1:53
  Original Simulation       10   2  2023 Yr   14 of   14 Time  21: 1:53
  Original Simulation       10   3  2023 Yr   14 of   14 Time  21: 1:53
  Original Simulation       10   4  2023 Yr   14 of   14 Time  21: 1:53
  Original Simulation       10   5  2023 Yr   14 of   14 Time  21: 1:53
  Original Simulation       10   6  2023 Yr   14 of   14 Time  21: 1:53
  Original Simulation       10   7  2023 Yr   14 of   14 Time  21: 1:53
  Original Simulation       10   8  2023 Yr   14 of   14 Time  21: 1:53
  Original Simulation       10   9  2023 Yr   14 of   14 Time  21: 1:53
  Original Simulation       10  10  2023 Yr   14 of   14 Time  21: 1:53
  Original Simulation       10  11  2023 Yr   14 of   14 Time  21: 1:54
  Original Simulation       10  12  2023 Yr   14 of   14 Time  21: 1:54
  Original Simulation       10  13  2023 Yr   14 of   14 Time  21: 1:54
  Original Simulation       10  14  2023 Yr   14 of   14 Time  21: 1:54
  Original Simulation       10  15  2023 Yr   14 of   14 Time  21: 1:54
  Original Simulation       10  16  2023 Yr   14 of   14 Time  21: 1:54
  Original Simulation       10  17  2023 Yr   14 of   14 Time  21: 1:54
  Original Simulation       10  18  2023 Yr   14 of   14 Time  21: 1:54
  Original Simulation       10  19  2023 Yr   14 of   14 Time  21: 1:54
  Original Simulation       10  20  2023 Yr   14 of   14 Time  21: 1:54
  Original Simulation       10  21  2023 Yr   14 of   14 Time  21: 1:54
  Original Simulation       10  22  2023 Yr   14 of   14 Time  21: 1:55
  Original Simulation       10  23  2023 Yr   14 of   14 Time  21: 1:55
  Original Simulation       10  24  2023 Yr   14 of   14 Time  21: 1:55
  Original Simulation       10  25  2023 Yr   14 of   14 Time  21: 1:55
  Original Simulation       10  26  2023 Yr   14 of   14 Time  21: 1:55
  Original Simulation       10  27  2023 Yr   14 of   14 Time  21: 1:55
  Original Simulation       10  28  2023 Yr   14 of   14 Time  21: 1:55
  Original Simulation       10  29  2023 Yr   14 of   14 Time  21: 1:55
  Original Simulation       10  30  2023 Yr   14 of   14 Time  21: 1:55
  Original Simulation       10  31  2023 Yr   14 of   14 Time  21: 1:55
  Original Simulation       11   1  2023 Yr   14 of   14 Time  21: 1:55
  Original Simulation       11   2  2023 Yr   14 of   14 Time  21: 1:56
  Original Simulation       11   3  2023 Yr   14 of   14 Time  21: 1:56
  Original Simulation       11   4  2023 Yr   14 of   14 Time  21: 1:56
  Original Simulation       11   5  2023 Yr   14 of   14 Time  21: 1:56
  Original Simulation       11   6  2023 Yr   14 of   14 Time  21: 1:56
  Original Simulation       11   7  2023 Yr   14 of   14 Time  21: 1:56
  Original Simulation       11   8  2023 Yr   14 of   14 Time  21: 1:56
  Original Simulation       11   9  2023 Yr   14 of   14 Time  21: 1:56
  Original Simulation       11  10  2023 Yr   14 of   14 Time  21: 1:56
  Original Simulation       11  11  2023 Yr   14 of   14 Time  21: 1:56
  Original Simulation       11  12  2023 Yr   14 of   14 Time  21: 1:56
  Original Simulation       11  13  2023 Yr   14 of   14 Time  21: 1:57
  Original Simulation       11  14  2023 Yr   14 of   14 Time  21: 1:57
  Original Simulation       11  15  2023 Yr   14 of   14 Time  21: 1:57
  Original Simulation       11  16  2023 Yr   14 of   14 Time  21: 1:57
  Original Simulation       11  17  2023 Yr   14 of   14 Time  21: 1:57
  Original Simulation       11  18  2023 Yr   14 of   14 Time  21: 1:57
  Original Simulation       11  19  2023 Yr   14 of   14 Time  21: 1:57
  Original Simulation       11  20  2023 Yr   14 of   14 Time  21: 1:57
  Original Simulation       11  21  2023 Yr   14 of   14 Time  21: 1:57
  Original Simulation       11  22  2023 Yr   14 of   14 Time  21: 1:57
  Original Simulation       11  23  2023 Yr   14 of   14 Time  21: 1:57
  Original Simulation       11  24  2023 Yr   14 of   14 Time  21: 1:58
  Original Simulation       11  25  2023 Yr   14 of   14 Time  21: 1:58
  Original Simulation       11  26  2023 Yr   14 of   14 Time  21: 1:58
  Original Simulation       11  27  2023 Yr   14 of   14 Time  21: 1:58
  Original Simulation       11  28  2023 Yr   14 of   14 Time  21: 1:58
  Original Simulation       11  29  2023 Yr   14 of   14 Time  21: 1:58
  Original Simulation       11  30  2023 Yr   14 of   14 Time  21: 1:58
  Original Simulation       12   1  2023 Yr   14 of   14 Time  21: 1:58
  Original Simulation       12   2  2023 Yr   14 of   14 Time  21: 1:58
  Original Simulation       12   3  2023 Yr   14 of   14 Time  21: 1:58
  Original Simulation       12   4  2023 Yr   14 of   14 Time  21: 1:58
  Original Simulation       12   5  2023 Yr   14 of   14 Time  21: 1:59
  Original Simulation       12   6  2023 Yr   14 of   14 Time  21: 1:59
  Original Simulation       12   7  2023 Yr   14 of   14 Time  21: 1:59
  Original Simulation       12   8  2023 Yr   14 of   14 Time  21: 1:59
  Original Simulation       12   9  2023 Yr   14 of   14 Time  21: 1:59
  Original Simulation       12  10  2023 Yr   14 of   14 Time  21: 1:59
  Original Simulation       12  11  2023 Yr   14 of   14 Time  21: 1:59
  Original Simulation       12  12  2023 Yr   14 of   14 Time  21: 1:59
  Original Simulation       12  13  2023 Yr   14 of   14 Time  21: 1:59
  Original Simulation       12  14  2023 Yr   14 of   14 Time  21: 1:59
  Original Simulation       12  15  2023 Yr   14 of   14 Time  21: 2: 0
  Original Simulation       12  16  2023 Yr   14 of   14 Time  21: 2: 0
  Original Simulation       12  17  2023 Yr   14 of   14 Time  21: 2: 0
  Original Simulation       12  18  2023 Yr   14 of   14 Time  21: 2: 0
  Original Simulation       12  19  2023 Yr   14 of   14 Time  21: 2: 0
  Original Simulation       12  20  2023 Yr   14 of   14 Time  21: 2: 0
  Original Simulation       12  21  2023 Yr   14 of   14 Time  21: 2: 0
  Original Simulation       12  22  2023 Yr   14 of   14 Time  21: 2: 0
  Original Simulation       12  23  2023 Yr   14 of   14 Time  21: 2: 0
  Original Simulation       12  24  2023 Yr   14 of   14 Time  21: 2: 0
  Original Simulation       12  25  2023 Yr   14 of   14 Time  21: 2: 0
  Original Simulation       12  26  2023 Yr   14 of   14 Time  21: 2: 1
  Original Simulation       12  27  2023 Yr   14 of   14 Time  21: 2: 1
  Original Simulation       12  28  2023 Yr   14 of   14 Time  21: 2: 1
  Original Simulation       12  29  2023 Yr   14 of   14 Time  21: 2: 1
  Original Simulation       12  30  2023 Yr   14 of   14 Time  21: 2: 1
  Original Simulation       12  31  2023 Yr   14 of   14 Time  21: 2: 1

 Execution successfully completed 

  Date of Sim   2/ 5/2024 Time  21: 2: 1
