                   SWAT+               
             Revision 60.5.6          
      Soil & Water Assessment Tool    
               PC Version             
    Program reading . . . executing


  Date of Sim   8/15/2024 Time  10:15:14
 reading from precipitation file         Time  10:15:14
 reading from temperature file           Time  10:15:14
 reading from solar radiation file       Time  10:15:14
 reading from relative humidity file     Time  10:15:14
 reading from wind file                  Time  10:15:14
 reading from wgn file                   Time  10:15:14
 reading from wx station file            Time  10:15:14
  Original Simulation        1   1  2015 Yr    1 of    9 Time  10:15:14
  Original Simulation        1   2  2015 Yr    1 of    9 Time  10:15:14
  Original Simulation        1   3  2015 Yr    1 of    9 Time  10:15:14
  Original Simulation        1   4  2015 Yr    1 of    9 Time  10:15:14
  Original Simulation        1   5  2015 Yr    1 of    9 Time  10:15:14
  Original Simulation        1   6  2015 Yr    1 of    9 Time  10:15:14
  Original Simulation        1   7  2015 Yr    1 of    9 Time  10:15:14
  Original Simulation        1   8  2015 Yr    1 of    9 Time  10:15:14
  Original Simulation        1   9  2015 Yr    1 of    9 Time  10:15:14
  Original Simulation        1  10  2015 Yr    1 of    9 Time  10:15:14
  Original Simulation        1  11  2015 Yr    1 of    9 Time  10:15:14
  Original Simulation        1  12  2015 Yr    1 of    9 Time  10:15:14
  Original Simulation        1  13  2015 Yr    1 of    9 Time  10:15:14
  Original Simulation        1  14  2015 Yr    1 of    9 Time  10:15:14
  Original Simulation        1  15  2015 Yr    1 of    9 Time  10:15:14
  Original Simulation        1  16  2015 Yr    1 of    9 Time  10:15:14
  Original Simulation        1  17  2015 Yr    1 of    9 Time  10:15:14
  Original Simulation        1  18  2015 Yr    1 of    9 Time  10:15:14
  Original Simulation        1  19  2015 Yr    1 of    9 Time  10:15:14
  Original Simulation        1  20  2015 Yr    1 of    9 Time  10:15:14
  Original Simulation        1  21  2015 Yr    1 of    9 Time  10:15:14
  Original Simulation        1  22  2015 Yr    1 of    9 Time  10:15:14
  Original Simulation        1  23  2015 Yr    1 of    9 Time  10:15:14
  Original Simulation        1  24  2015 Yr    1 of    9 Time  10:15:14
  Original Simulation        1  25  2015 Yr    1 of    9 Time  10:15:14
  Original Simulation        1  26  2015 Yr    1 of    9 Time  10:15:14
  Original Simulation        1  27  2015 Yr    1 of    9 Time  10:15:14
  Original Simulation        1  28  2015 Yr    1 of    9 Time  10:15:14
  Original Simulation        1  29  2015 Yr    1 of    9 Time  10:15:14
  Original Simulation        1  30  2015 Yr    1 of    9 Time  10:15:14
  Original Simulation        1  31  2015 Yr    1 of    9 Time  10:15:14
  Original Simulation        2   1  2015 Yr    1 of    9 Time  10:15:14
  Original Simulation        2   2  2015 Yr    1 of    9 Time  10:15:14
  Original Simulation        2   3  2015 Yr    1 of    9 Time  10:15:14
  Original Simulation        2   4  2015 Yr    1 of    9 Time  10:15:14
  Original Simulation        2   5  2015 Yr    1 of    9 Time  10:15:14
  Original Simulation        2   6  2015 Yr    1 of    9 Time  10:15:14
  Original Simulation        2   7  2015 Yr    1 of    9 Time  10:15:14
  Original Simulation        2   8  2015 Yr    1 of    9 Time  10:15:14
  Original Simulation        2   9  2015 Yr    1 of    9 Time  10:15:14
  Original Simulation        2  10  2015 Yr    1 of    9 Time  10:15:14
  Original Simulation        2  11  2015 Yr    1 of    9 Time  10:15:14
  Original Simulation        2  12  2015 Yr    1 of    9 Time  10:15:14
  Original Simulation        2  13  2015 Yr    1 of    9 Time  10:15:14
  Original Simulation        2  14  2015 Yr    1 of    9 Time  10:15:14
  Original Simulation        2  15  2015 Yr    1 of    9 Time  10:15:14
  Original Simulation        2  16  2015 Yr    1 of    9 Time  10:15:14
  Original Simulation        2  17  2015 Yr    1 of    9 Time  10:15:14
  Original Simulation        2  18  2015 Yr    1 of    9 Time  10:15:14
  Original Simulation        2  19  2015 Yr    1 of    9 Time  10:15:14
  Original Simulation        2  20  2015 Yr    1 of    9 Time  10:15:14
  Original Simulation        2  21  2015 Yr    1 of    9 Time  10:15:14
  Original Simulation        2  22  2015 Yr    1 of    9 Time  10:15:14
  Original Simulation        2  23  2015 Yr    1 of    9 Time  10:15:14
  Original Simulation        2  24  2015 Yr    1 of    9 Time  10:15:14
  Original Simulation        2  25  2015 Yr    1 of    9 Time  10:15:14
  Original Simulation        2  26  2015 Yr    1 of    9 Time  10:15:14
  Original Simulation        2  27  2015 Yr    1 of    9 Time  10:15:14
  Original Simulation        2  28  2015 Yr    1 of    9 Time  10:15:14
  Original Simulation        3   1  2015 Yr    1 of    9 Time  10:15:14
  Original Simulation        3   2  2015 Yr    1 of    9 Time  10:15:14
  Original Simulation        3   3  2015 Yr    1 of    9 Time  10:15:14
  Original Simulation        3   4  2015 Yr    1 of    9 Time  10:15:14
  Original Simulation        3   5  2015 Yr    1 of    9 Time  10:15:14
  Original Simulation        3   6  2015 Yr    1 of    9 Time  10:15:14
  Original Simulation        3   7  2015 Yr    1 of    9 Time  10:15:14
  Original Simulation        3   8  2015 Yr    1 of    9 Time  10:15:14
  Original Simulation        3   9  2015 Yr    1 of    9 Time  10:15:14
  Original Simulation        3  10  2015 Yr    1 of    9 Time  10:15:14
  Original Simulation        3  11  2015 Yr    1 of    9 Time  10:15:14
  Original Simulation        3  12  2015 Yr    1 of    9 Time  10:15:14
  Original Simulation        3  13  2015 Yr    1 of    9 Time  10:15:14
  Original Simulation        3  14  2015 Yr    1 of    9 Time  10:15:14
  Original Simulation        3  15  2015 Yr    1 of    9 Time  10:15:14
  Original Simulation        3  16  2015 Yr    1 of    9 Time  10:15:14
  Original Simulation        3  17  2015 Yr    1 of    9 Time  10:15:14
  Original Simulation        3  18  2015 Yr    1 of    9 Time  10:15:14
  Original Simulation        3  19  2015 Yr    1 of    9 Time  10:15:14
  Original Simulation        3  20  2015 Yr    1 of    9 Time  10:15:14
  Original Simulation        3  21  2015 Yr    1 of    9 Time  10:15:14
  Original Simulation        3  22  2015 Yr    1 of    9 Time  10:15:14
  Original Simulation        3  23  2015 Yr    1 of    9 Time  10:15:14
  Original Simulation        3  24  2015 Yr    1 of    9 Time  10:15:14
  Original Simulation        3  25  2015 Yr    1 of    9 Time  10:15:14
  Original Simulation        3  26  2015 Yr    1 of    9 Time  10:15:14
  Original Simulation        3  27  2015 Yr    1 of    9 Time  10:15:14
  Original Simulation        3  28  2015 Yr    1 of    9 Time  10:15:14
  Original Simulation        3  29  2015 Yr    1 of    9 Time  10:15:14
  Original Simulation        3  30  2015 Yr    1 of    9 Time  10:15:14
  Original Simulation        3  31  2015 Yr    1 of    9 Time  10:15:14
  Original Simulation        4   1  2015 Yr    1 of    9 Time  10:15:14
  Original Simulation        4   2  2015 Yr    1 of    9 Time  10:15:14
  Original Simulation        4   3  2015 Yr    1 of    9 Time  10:15:14
  Original Simulation        4   4  2015 Yr    1 of    9 Time  10:15:14
  Original Simulation        4   5  2015 Yr    1 of    9 Time  10:15:14
  Original Simulation        4   6  2015 Yr    1 of    9 Time  10:15:14
  Original Simulation        4   7  2015 Yr    1 of    9 Time  10:15:14
  Original Simulation        4   8  2015 Yr    1 of    9 Time  10:15:14
  Original Simulation        4   9  2015 Yr    1 of    9 Time  10:15:14
  Original Simulation        4  10  2015 Yr    1 of    9 Time  10:15:14
  Original Simulation        4  11  2015 Yr    1 of    9 Time  10:15:14
  Original Simulation        4  12  2015 Yr    1 of    9 Time  10:15:14
  Original Simulation        4  13  2015 Yr    1 of    9 Time  10:15:14
  Original Simulation        4  14  2015 Yr    1 of    9 Time  10:15:14
  Original Simulation        4  15  2015 Yr    1 of    9 Time  10:15:14
  Original Simulation        4  16  2015 Yr    1 of    9 Time  10:15:14
  Original Simulation        4  17  2015 Yr    1 of    9 Time  10:15:14
  Original Simulation        4  18  2015 Yr    1 of    9 Time  10:15:14
  Original Simulation        4  19  2015 Yr    1 of    9 Time  10:15:14
  Original Simulation        4  20  2015 Yr    1 of    9 Time  10:15:14
  Original Simulation        4  21  2015 Yr    1 of    9 Time  10:15:14
  Original Simulation        4  22  2015 Yr    1 of    9 Time  10:15:14
  Original Simulation        4  23  2015 Yr    1 of    9 Time  10:15:14
  Original Simulation        4  24  2015 Yr    1 of    9 Time  10:15:14
  Original Simulation        4  25  2015 Yr    1 of    9 Time  10:15:14
  Original Simulation        4  26  2015 Yr    1 of    9 Time  10:15:14
  Original Simulation        4  27  2015 Yr    1 of    9 Time  10:15:14
  Original Simulation        4  28  2015 Yr    1 of    9 Time  10:15:14
  Original Simulation        4  29  2015 Yr    1 of    9 Time  10:15:14
  Original Simulation        4  30  2015 Yr    1 of    9 Time  10:15:14
  Original Simulation        5   1  2015 Yr    1 of    9 Time  10:15:14
  Original Simulation        5   2  2015 Yr    1 of    9 Time  10:15:14
  Original Simulation        5   3  2015 Yr    1 of    9 Time  10:15:14
  Original Simulation        5   4  2015 Yr    1 of    9 Time  10:15:14
  Original Simulation        5   5  2015 Yr    1 of    9 Time  10:15:14
  Original Simulation        5   6  2015 Yr    1 of    9 Time  10:15:14
  Original Simulation        5   7  2015 Yr    1 of    9 Time  10:15:14
  Original Simulation        5   8  2015 Yr    1 of    9 Time  10:15:14
  Original Simulation        5   9  2015 Yr    1 of    9 Time  10:15:14
  Original Simulation        5  10  2015 Yr    1 of    9 Time  10:15:14
  Original Simulation        5  11  2015 Yr    1 of    9 Time  10:15:14
  Original Simulation        5  12  2015 Yr    1 of    9 Time  10:15:14
  Original Simulation        5  13  2015 Yr    1 of    9 Time  10:15:14
  Original Simulation        5  14  2015 Yr    1 of    9 Time  10:15:14
  Original Simulation        5  15  2015 Yr    1 of    9 Time  10:15:14
  Original Simulation        5  16  2015 Yr    1 of    9 Time  10:15:14
  Original Simulation        5  17  2015 Yr    1 of    9 Time  10:15:14
  Original Simulation        5  18  2015 Yr    1 of    9 Time  10:15:14
  Original Simulation        5  19  2015 Yr    1 of    9 Time  10:15:14
  Original Simulation        5  20  2015 Yr    1 of    9 Time  10:15:14
  Original Simulation        5  21  2015 Yr    1 of    9 Time  10:15:14
  Original Simulation        5  22  2015 Yr    1 of    9 Time  10:15:14
  Original Simulation        5  23  2015 Yr    1 of    9 Time  10:15:14
  Original Simulation        5  24  2015 Yr    1 of    9 Time  10:15:14
  Original Simulation        5  25  2015 Yr    1 of    9 Time  10:15:14
  Original Simulation        5  26  2015 Yr    1 of    9 Time  10:15:14
  Original Simulation        5  27  2015 Yr    1 of    9 Time  10:15:14
  Original Simulation        5  28  2015 Yr    1 of    9 Time  10:15:14
  Original Simulation        5  29  2015 Yr    1 of    9 Time  10:15:14
  Original Simulation        5  30  2015 Yr    1 of    9 Time  10:15:14
  Original Simulation        5  31  2015 Yr    1 of    9 Time  10:15:14
  Original Simulation        6   1  2015 Yr    1 of    9 Time  10:15:14
  Original Simulation        6   2  2015 Yr    1 of    9 Time  10:15:14
  Original Simulation        6   3  2015 Yr    1 of    9 Time  10:15:14
  Original Simulation        6   4  2015 Yr    1 of    9 Time  10:15:14
  Original Simulation        6   5  2015 Yr    1 of    9 Time  10:15:14
  Original Simulation        6   6  2015 Yr    1 of    9 Time  10:15:14
  Original Simulation        6   7  2015 Yr    1 of    9 Time  10:15:14
  Original Simulation        6   8  2015 Yr    1 of    9 Time  10:15:14
  Original Simulation        6   9  2015 Yr    1 of    9 Time  10:15:14
  Original Simulation        6  10  2015 Yr    1 of    9 Time  10:15:14
  Original Simulation        6  11  2015 Yr    1 of    9 Time  10:15:14
  Original Simulation        6  12  2015 Yr    1 of    9 Time  10:15:14
  Original Simulation        6  13  2015 Yr    1 of    9 Time  10:15:14
  Original Simulation        6  14  2015 Yr    1 of    9 Time  10:15:14
  Original Simulation        6  15  2015 Yr    1 of    9 Time  10:15:14
  Original Simulation        6  16  2015 Yr    1 of    9 Time  10:15:14
  Original Simulation        6  17  2015 Yr    1 of    9 Time  10:15:14
  Original Simulation        6  18  2015 Yr    1 of    9 Time  10:15:14
  Original Simulation        6  19  2015 Yr    1 of    9 Time  10:15:14
  Original Simulation        6  20  2015 Yr    1 of    9 Time  10:15:14
  Original Simulation        6  21  2015 Yr    1 of    9 Time  10:15:14
  Original Simulation        6  22  2015 Yr    1 of    9 Time  10:15:14
  Original Simulation        6  23  2015 Yr    1 of    9 Time  10:15:14
  Original Simulation        6  24  2015 Yr    1 of    9 Time  10:15:14
  Original Simulation        6  25  2015 Yr    1 of    9 Time  10:15:14
  Original Simulation        6  26  2015 Yr    1 of    9 Time  10:15:14
  Original Simulation        6  27  2015 Yr    1 of    9 Time  10:15:14
  Original Simulation        6  28  2015 Yr    1 of    9 Time  10:15:14
  Original Simulation        6  29  2015 Yr    1 of    9 Time  10:15:14
  Original Simulation        6  30  2015 Yr    1 of    9 Time  10:15:14
  Original Simulation        7   1  2015 Yr    1 of    9 Time  10:15:15
  Original Simulation        7   2  2015 Yr    1 of    9 Time  10:15:15
  Original Simulation        7   3  2015 Yr    1 of    9 Time  10:15:15
  Original Simulation        7   4  2015 Yr    1 of    9 Time  10:15:15
  Original Simulation        7   5  2015 Yr    1 of    9 Time  10:15:15
  Original Simulation        7   6  2015 Yr    1 of    9 Time  10:15:15
  Original Simulation        7   7  2015 Yr    1 of    9 Time  10:15:15
  Original Simulation        7   8  2015 Yr    1 of    9 Time  10:15:15
  Original Simulation        7   9  2015 Yr    1 of    9 Time  10:15:15
  Original Simulation        7  10  2015 Yr    1 of    9 Time  10:15:15
  Original Simulation        7  11  2015 Yr    1 of    9 Time  10:15:15
  Original Simulation        7  12  2015 Yr    1 of    9 Time  10:15:15
  Original Simulation        7  13  2015 Yr    1 of    9 Time  10:15:15
  Original Simulation        7  14  2015 Yr    1 of    9 Time  10:15:15
  Original Simulation        7  15  2015 Yr    1 of    9 Time  10:15:15
  Original Simulation        7  16  2015 Yr    1 of    9 Time  10:15:15
  Original Simulation        7  17  2015 Yr    1 of    9 Time  10:15:15
  Original Simulation        7  18  2015 Yr    1 of    9 Time  10:15:15
  Original Simulation        7  19  2015 Yr    1 of    9 Time  10:15:15
  Original Simulation        7  20  2015 Yr    1 of    9 Time  10:15:15
  Original Simulation        7  21  2015 Yr    1 of    9 Time  10:15:15
  Original Simulation        7  22  2015 Yr    1 of    9 Time  10:15:15
  Original Simulation        7  23  2015 Yr    1 of    9 Time  10:15:15
  Original Simulation        7  24  2015 Yr    1 of    9 Time  10:15:15
  Original Simulation        7  25  2015 Yr    1 of    9 Time  10:15:15
  Original Simulation        7  26  2015 Yr    1 of    9 Time  10:15:15
  Original Simulation        7  27  2015 Yr    1 of    9 Time  10:15:15
  Original Simulation        7  28  2015 Yr    1 of    9 Time  10:15:15
  Original Simulation        7  29  2015 Yr    1 of    9 Time  10:15:15
  Original Simulation        7  30  2015 Yr    1 of    9 Time  10:15:15
  Original Simulation        7  31  2015 Yr    1 of    9 Time  10:15:15
  Original Simulation        8   1  2015 Yr    1 of    9 Time  10:15:15
  Original Simulation        8   2  2015 Yr    1 of    9 Time  10:15:15
  Original Simulation        8   3  2015 Yr    1 of    9 Time  10:15:15
  Original Simulation        8   4  2015 Yr    1 of    9 Time  10:15:15
  Original Simulation        8   5  2015 Yr    1 of    9 Time  10:15:15
  Original Simulation        8   6  2015 Yr    1 of    9 Time  10:15:15
  Original Simulation        8   7  2015 Yr    1 of    9 Time  10:15:15
  Original Simulation        8   8  2015 Yr    1 of    9 Time  10:15:15
  Original Simulation        8   9  2015 Yr    1 of    9 Time  10:15:15
  Original Simulation        8  10  2015 Yr    1 of    9 Time  10:15:15
  Original Simulation        8  11  2015 Yr    1 of    9 Time  10:15:15
  Original Simulation        8  12  2015 Yr    1 of    9 Time  10:15:15
  Original Simulation        8  13  2015 Yr    1 of    9 Time  10:15:15
  Original Simulation        8  14  2015 Yr    1 of    9 Time  10:15:15
  Original Simulation        8  15  2015 Yr    1 of    9 Time  10:15:15
  Original Simulation        8  16  2015 Yr    1 of    9 Time  10:15:15
  Original Simulation        8  17  2015 Yr    1 of    9 Time  10:15:15
  Original Simulation        8  18  2015 Yr    1 of    9 Time  10:15:15
  Original Simulation        8  19  2015 Yr    1 of    9 Time  10:15:15
  Original Simulation        8  20  2015 Yr    1 of    9 Time  10:15:15
  Original Simulation        8  21  2015 Yr    1 of    9 Time  10:15:15
  Original Simulation        8  22  2015 Yr    1 of    9 Time  10:15:15
  Original Simulation        8  23  2015 Yr    1 of    9 Time  10:15:15
  Original Simulation        8  24  2015 Yr    1 of    9 Time  10:15:15
  Original Simulation        8  25  2015 Yr    1 of    9 Time  10:15:15
  Original Simulation        8  26  2015 Yr    1 of    9 Time  10:15:15
  Original Simulation        8  27  2015 Yr    1 of    9 Time  10:15:15
  Original Simulation        8  28  2015 Yr    1 of    9 Time  10:15:15
  Original Simulation        8  29  2015 Yr    1 of    9 Time  10:15:15
  Original Simulation        8  30  2015 Yr    1 of    9 Time  10:15:15
  Original Simulation        8  31  2015 Yr    1 of    9 Time  10:15:15
  Original Simulation        9   1  2015 Yr    1 of    9 Time  10:15:15
  Original Simulation        9   2  2015 Yr    1 of    9 Time  10:15:15
  Original Simulation        9   3  2015 Yr    1 of    9 Time  10:15:15
  Original Simulation        9   4  2015 Yr    1 of    9 Time  10:15:15
  Original Simulation        9   5  2015 Yr    1 of    9 Time  10:15:15
  Original Simulation        9   6  2015 Yr    1 of    9 Time  10:15:15
  Original Simulation        9   7  2015 Yr    1 of    9 Time  10:15:15
  Original Simulation        9   8  2015 Yr    1 of    9 Time  10:15:15
  Original Simulation        9   9  2015 Yr    1 of    9 Time  10:15:15
  Original Simulation        9  10  2015 Yr    1 of    9 Time  10:15:15
  Original Simulation        9  11  2015 Yr    1 of    9 Time  10:15:15
  Original Simulation        9  12  2015 Yr    1 of    9 Time  10:15:15
  Original Simulation        9  13  2015 Yr    1 of    9 Time  10:15:15
  Original Simulation        9  14  2015 Yr    1 of    9 Time  10:15:15
  Original Simulation        9  15  2015 Yr    1 of    9 Time  10:15:15
  Original Simulation        9  16  2015 Yr    1 of    9 Time  10:15:15
  Original Simulation        9  17  2015 Yr    1 of    9 Time  10:15:15
  Original Simulation        9  18  2015 Yr    1 of    9 Time  10:15:15
  Original Simulation        9  19  2015 Yr    1 of    9 Time  10:15:15
  Original Simulation        9  20  2015 Yr    1 of    9 Time  10:15:15
  Original Simulation        9  21  2015 Yr    1 of    9 Time  10:15:15
  Original Simulation        9  22  2015 Yr    1 of    9 Time  10:15:15
  Original Simulation        9  23  2015 Yr    1 of    9 Time  10:15:15
  Original Simulation        9  24  2015 Yr    1 of    9 Time  10:15:15
  Original Simulation        9  25  2015 Yr    1 of    9 Time  10:15:15
  Original Simulation        9  26  2015 Yr    1 of    9 Time  10:15:15
  Original Simulation        9  27  2015 Yr    1 of    9 Time  10:15:15
  Original Simulation        9  28  2015 Yr    1 of    9 Time  10:15:15
  Original Simulation        9  29  2015 Yr    1 of    9 Time  10:15:15
  Original Simulation        9  30  2015 Yr    1 of    9 Time  10:15:15
  Original Simulation       10   1  2015 Yr    1 of    9 Time  10:15:15
  Original Simulation       10   2  2015 Yr    1 of    9 Time  10:15:15
  Original Simulation       10   3  2015 Yr    1 of    9 Time  10:15:15
  Original Simulation       10   4  2015 Yr    1 of    9 Time  10:15:15
  Original Simulation       10   5  2015 Yr    1 of    9 Time  10:15:15
  Original Simulation       10   6  2015 Yr    1 of    9 Time  10:15:15
  Original Simulation       10   7  2015 Yr    1 of    9 Time  10:15:15
  Original Simulation       10   8  2015 Yr    1 of    9 Time  10:15:15
  Original Simulation       10   9  2015 Yr    1 of    9 Time  10:15:15
  Original Simulation       10  10  2015 Yr    1 of    9 Time  10:15:15
  Original Simulation       10  11  2015 Yr    1 of    9 Time  10:15:15
  Original Simulation       10  12  2015 Yr    1 of    9 Time  10:15:15
  Original Simulation       10  13  2015 Yr    1 of    9 Time  10:15:15
  Original Simulation       10  14  2015 Yr    1 of    9 Time  10:15:15
  Original Simulation       10  15  2015 Yr    1 of    9 Time  10:15:15
  Original Simulation       10  16  2015 Yr    1 of    9 Time  10:15:15
  Original Simulation       10  17  2015 Yr    1 of    9 Time  10:15:15
  Original Simulation       10  18  2015 Yr    1 of    9 Time  10:15:15
  Original Simulation       10  19  2015 Yr    1 of    9 Time  10:15:15
  Original Simulation       10  20  2015 Yr    1 of    9 Time  10:15:15
  Original Simulation       10  21  2015 Yr    1 of    9 Time  10:15:15
  Original Simulation       10  22  2015 Yr    1 of    9 Time  10:15:15
  Original Simulation       10  23  2015 Yr    1 of    9 Time  10:15:15
  Original Simulation       10  24  2015 Yr    1 of    9 Time  10:15:15
  Original Simulation       10  25  2015 Yr    1 of    9 Time  10:15:15
  Original Simulation       10  26  2015 Yr    1 of    9 Time  10:15:15
  Original Simulation       10  27  2015 Yr    1 of    9 Time  10:15:15
  Original Simulation       10  28  2015 Yr    1 of    9 Time  10:15:15
  Original Simulation       10  29  2015 Yr    1 of    9 Time  10:15:15
  Original Simulation       10  30  2015 Yr    1 of    9 Time  10:15:15
  Original Simulation       10  31  2015 Yr    1 of    9 Time  10:15:15
  Original Simulation       11   1  2015 Yr    1 of    9 Time  10:15:15
  Original Simulation       11   2  2015 Yr    1 of    9 Time  10:15:15
  Original Simulation       11   3  2015 Yr    1 of    9 Time  10:15:15
  Original Simulation       11   4  2015 Yr    1 of    9 Time  10:15:15
  Original Simulation       11   5  2015 Yr    1 of    9 Time  10:15:15
  Original Simulation       11   6  2015 Yr    1 of    9 Time  10:15:15
  Original Simulation       11   7  2015 Yr    1 of    9 Time  10:15:15
  Original Simulation       11   8  2015 Yr    1 of    9 Time  10:15:15
  Original Simulation       11   9  2015 Yr    1 of    9 Time  10:15:15
  Original Simulation       11  10  2015 Yr    1 of    9 Time  10:15:15
  Original Simulation       11  11  2015 Yr    1 of    9 Time  10:15:15
  Original Simulation       11  12  2015 Yr    1 of    9 Time  10:15:15
  Original Simulation       11  13  2015 Yr    1 of    9 Time  10:15:15
  Original Simulation       11  14  2015 Yr    1 of    9 Time  10:15:15
  Original Simulation       11  15  2015 Yr    1 of    9 Time  10:15:15
  Original Simulation       11  16  2015 Yr    1 of    9 Time  10:15:15
  Original Simulation       11  17  2015 Yr    1 of    9 Time  10:15:15
  Original Simulation       11  18  2015 Yr    1 of    9 Time  10:15:15
  Original Simulation       11  19  2015 Yr    1 of    9 Time  10:15:15
  Original Simulation       11  20  2015 Yr    1 of    9 Time  10:15:15
  Original Simulation       11  21  2015 Yr    1 of    9 Time  10:15:15
  Original Simulation       11  22  2015 Yr    1 of    9 Time  10:15:15
  Original Simulation       11  23  2015 Yr    1 of    9 Time  10:15:15
  Original Simulation       11  24  2015 Yr    1 of    9 Time  10:15:15
  Original Simulation       11  25  2015 Yr    1 of    9 Time  10:15:15
  Original Simulation       11  26  2015 Yr    1 of    9 Time  10:15:15
  Original Simulation       11  27  2015 Yr    1 of    9 Time  10:15:15
  Original Simulation       11  28  2015 Yr    1 of    9 Time  10:15:15
  Original Simulation       11  29  2015 Yr    1 of    9 Time  10:15:15
  Original Simulation       11  30  2015 Yr    1 of    9 Time  10:15:15
  Original Simulation       12   1  2015 Yr    1 of    9 Time  10:15:15
  Original Simulation       12   2  2015 Yr    1 of    9 Time  10:15:15
  Original Simulation       12   3  2015 Yr    1 of    9 Time  10:15:15
  Original Simulation       12   4  2015 Yr    1 of    9 Time  10:15:15
  Original Simulation       12   5  2015 Yr    1 of    9 Time  10:15:15
  Original Simulation       12   6  2015 Yr    1 of    9 Time  10:15:15
  Original Simulation       12   7  2015 Yr    1 of    9 Time  10:15:15
  Original Simulation       12   8  2015 Yr    1 of    9 Time  10:15:15
  Original Simulation       12   9  2015 Yr    1 of    9 Time  10:15:15
  Original Simulation       12  10  2015 Yr    1 of    9 Time  10:15:15
  Original Simulation       12  11  2015 Yr    1 of    9 Time  10:15:15
  Original Simulation       12  12  2015 Yr    1 of    9 Time  10:15:15
  Original Simulation       12  13  2015 Yr    1 of    9 Time  10:15:15
  Original Simulation       12  14  2015 Yr    1 of    9 Time  10:15:15
  Original Simulation       12  15  2015 Yr    1 of    9 Time  10:15:15
  Original Simulation       12  16  2015 Yr    1 of    9 Time  10:15:15
  Original Simulation       12  17  2015 Yr    1 of    9 Time  10:15:15
  Original Simulation       12  18  2015 Yr    1 of    9 Time  10:15:15
  Original Simulation       12  19  2015 Yr    1 of    9 Time  10:15:15
  Original Simulation       12  20  2015 Yr    1 of    9 Time  10:15:15
  Original Simulation       12  21  2015 Yr    1 of    9 Time  10:15:15
  Original Simulation       12  22  2015 Yr    1 of    9 Time  10:15:15
  Original Simulation       12  23  2015 Yr    1 of    9 Time  10:15:15
  Original Simulation       12  24  2015 Yr    1 of    9 Time  10:15:15
  Original Simulation       12  25  2015 Yr    1 of    9 Time  10:15:15
  Original Simulation       12  26  2015 Yr    1 of    9 Time  10:15:15
  Original Simulation       12  27  2015 Yr    1 of    9 Time  10:15:15
  Original Simulation       12  28  2015 Yr    1 of    9 Time  10:15:15
  Original Simulation       12  29  2015 Yr    1 of    9 Time  10:15:15
  Original Simulation       12  30  2015 Yr    1 of    9 Time  10:15:15
  Original Simulation       12  31  2015 Yr    1 of    9 Time  10:15:15
  Original Simulation        1   1  2016 Yr    2 of    9 Time  10:15:15
  Original Simulation        1   2  2016 Yr    2 of    9 Time  10:15:15
  Original Simulation        1   3  2016 Yr    2 of    9 Time  10:15:15
  Original Simulation        1   4  2016 Yr    2 of    9 Time  10:15:15
  Original Simulation        1   5  2016 Yr    2 of    9 Time  10:15:15
  Original Simulation        1   6  2016 Yr    2 of    9 Time  10:15:15
  Original Simulation        1   7  2016 Yr    2 of    9 Time  10:15:15
  Original Simulation        1   8  2016 Yr    2 of    9 Time  10:15:15
  Original Simulation        1   9  2016 Yr    2 of    9 Time  10:15:15
  Original Simulation        1  10  2016 Yr    2 of    9 Time  10:15:15
  Original Simulation        1  11  2016 Yr    2 of    9 Time  10:15:15
  Original Simulation        1  12  2016 Yr    2 of    9 Time  10:15:15
  Original Simulation        1  13  2016 Yr    2 of    9 Time  10:15:15
  Original Simulation        1  14  2016 Yr    2 of    9 Time  10:15:15
  Original Simulation        1  15  2016 Yr    2 of    9 Time  10:15:15
  Original Simulation        1  16  2016 Yr    2 of    9 Time  10:15:15
  Original Simulation        1  17  2016 Yr    2 of    9 Time  10:15:15
  Original Simulation        1  18  2016 Yr    2 of    9 Time  10:15:15
  Original Simulation        1  19  2016 Yr    2 of    9 Time  10:15:15
  Original Simulation        1  20  2016 Yr    2 of    9 Time  10:15:15
  Original Simulation        1  21  2016 Yr    2 of    9 Time  10:15:15
  Original Simulation        1  22  2016 Yr    2 of    9 Time  10:15:15
  Original Simulation        1  23  2016 Yr    2 of    9 Time  10:15:15
  Original Simulation        1  24  2016 Yr    2 of    9 Time  10:15:15
  Original Simulation        1  25  2016 Yr    2 of    9 Time  10:15:15
  Original Simulation        1  26  2016 Yr    2 of    9 Time  10:15:15
  Original Simulation        1  27  2016 Yr    2 of    9 Time  10:15:15
  Original Simulation        1  28  2016 Yr    2 of    9 Time  10:15:15
  Original Simulation        1  29  2016 Yr    2 of    9 Time  10:15:15
  Original Simulation        1  30  2016 Yr    2 of    9 Time  10:15:15
  Original Simulation        1  31  2016 Yr    2 of    9 Time  10:15:15
  Original Simulation        2   1  2016 Yr    2 of    9 Time  10:15:15
  Original Simulation        2   2  2016 Yr    2 of    9 Time  10:15:15
  Original Simulation        2   3  2016 Yr    2 of    9 Time  10:15:15
  Original Simulation        2   4  2016 Yr    2 of    9 Time  10:15:15
  Original Simulation        2   5  2016 Yr    2 of    9 Time  10:15:15
  Original Simulation        2   6  2016 Yr    2 of    9 Time  10:15:15
  Original Simulation        2   7  2016 Yr    2 of    9 Time  10:15:15
  Original Simulation        2   8  2016 Yr    2 of    9 Time  10:15:15
  Original Simulation        2   9  2016 Yr    2 of    9 Time  10:15:15
  Original Simulation        2  10  2016 Yr    2 of    9 Time  10:15:15
  Original Simulation        2  11  2016 Yr    2 of    9 Time  10:15:15
  Original Simulation        2  12  2016 Yr    2 of    9 Time  10:15:15
  Original Simulation        2  13  2016 Yr    2 of    9 Time  10:15:15
  Original Simulation        2  14  2016 Yr    2 of    9 Time  10:15:15
  Original Simulation        2  15  2016 Yr    2 of    9 Time  10:15:15
  Original Simulation        2  16  2016 Yr    2 of    9 Time  10:15:15
  Original Simulation        2  17  2016 Yr    2 of    9 Time  10:15:15
  Original Simulation        2  18  2016 Yr    2 of    9 Time  10:15:15
  Original Simulation        2  19  2016 Yr    2 of    9 Time  10:15:15
  Original Simulation        2  20  2016 Yr    2 of    9 Time  10:15:15
  Original Simulation        2  21  2016 Yr    2 of    9 Time  10:15:15
  Original Simulation        2  22  2016 Yr    2 of    9 Time  10:15:15
  Original Simulation        2  23  2016 Yr    2 of    9 Time  10:15:15
  Original Simulation        2  24  2016 Yr    2 of    9 Time  10:15:15
  Original Simulation        2  25  2016 Yr    2 of    9 Time  10:15:15
  Original Simulation        2  26  2016 Yr    2 of    9 Time  10:15:15
  Original Simulation        2  27  2016 Yr    2 of    9 Time  10:15:15
  Original Simulation        2  28  2016 Yr    2 of    9 Time  10:15:15
  Original Simulation        2  29  2016 Yr    2 of    9 Time  10:15:15
  Original Simulation        3   1  2016 Yr    2 of    9 Time  10:15:15
  Original Simulation        3   2  2016 Yr    2 of    9 Time  10:15:15
  Original Simulation        3   3  2016 Yr    2 of    9 Time  10:15:15
  Original Simulation        3   4  2016 Yr    2 of    9 Time  10:15:15
  Original Simulation        3   5  2016 Yr    2 of    9 Time  10:15:15
  Original Simulation        3   6  2016 Yr    2 of    9 Time  10:15:15
  Original Simulation        3   7  2016 Yr    2 of    9 Time  10:15:15
  Original Simulation        3   8  2016 Yr    2 of    9 Time  10:15:15
  Original Simulation        3   9  2016 Yr    2 of    9 Time  10:15:16
  Original Simulation        3  10  2016 Yr    2 of    9 Time  10:15:16
  Original Simulation        3  11  2016 Yr    2 of    9 Time  10:15:16
  Original Simulation        3  12  2016 Yr    2 of    9 Time  10:15:16
  Original Simulation        3  13  2016 Yr    2 of    9 Time  10:15:16
  Original Simulation        3  14  2016 Yr    2 of    9 Time  10:15:16
  Original Simulation        3  15  2016 Yr    2 of    9 Time  10:15:16
  Original Simulation        3  16  2016 Yr    2 of    9 Time  10:15:16
  Original Simulation        3  17  2016 Yr    2 of    9 Time  10:15:16
  Original Simulation        3  18  2016 Yr    2 of    9 Time  10:15:16
  Original Simulation        3  19  2016 Yr    2 of    9 Time  10:15:16
  Original Simulation        3  20  2016 Yr    2 of    9 Time  10:15:16
  Original Simulation        3  21  2016 Yr    2 of    9 Time  10:15:16
  Original Simulation        3  22  2016 Yr    2 of    9 Time  10:15:16
  Original Simulation        3  23  2016 Yr    2 of    9 Time  10:15:16
  Original Simulation        3  24  2016 Yr    2 of    9 Time  10:15:16
  Original Simulation        3  25  2016 Yr    2 of    9 Time  10:15:16
  Original Simulation        3  26  2016 Yr    2 of    9 Time  10:15:16
  Original Simulation        3  27  2016 Yr    2 of    9 Time  10:15:16
  Original Simulation        3  28  2016 Yr    2 of    9 Time  10:15:16
  Original Simulation        3  29  2016 Yr    2 of    9 Time  10:15:16
  Original Simulation        3  30  2016 Yr    2 of    9 Time  10:15:16
  Original Simulation        3  31  2016 Yr    2 of    9 Time  10:15:16
  Original Simulation        4   1  2016 Yr    2 of    9 Time  10:15:16
  Original Simulation        4   2  2016 Yr    2 of    9 Time  10:15:16
  Original Simulation        4   3  2016 Yr    2 of    9 Time  10:15:16
  Original Simulation        4   4  2016 Yr    2 of    9 Time  10:15:16
  Original Simulation        4   5  2016 Yr    2 of    9 Time  10:15:16
  Original Simulation        4   6  2016 Yr    2 of    9 Time  10:15:16
  Original Simulation        4   7  2016 Yr    2 of    9 Time  10:15:16
  Original Simulation        4   8  2016 Yr    2 of    9 Time  10:15:16
  Original Simulation        4   9  2016 Yr    2 of    9 Time  10:15:16
  Original Simulation        4  10  2016 Yr    2 of    9 Time  10:15:16
  Original Simulation        4  11  2016 Yr    2 of    9 Time  10:15:16
  Original Simulation        4  12  2016 Yr    2 of    9 Time  10:15:16
  Original Simulation        4  13  2016 Yr    2 of    9 Time  10:15:16
  Original Simulation        4  14  2016 Yr    2 of    9 Time  10:15:16
  Original Simulation        4  15  2016 Yr    2 of    9 Time  10:15:16
  Original Simulation        4  16  2016 Yr    2 of    9 Time  10:15:16
  Original Simulation        4  17  2016 Yr    2 of    9 Time  10:15:16
  Original Simulation        4  18  2016 Yr    2 of    9 Time  10:15:16
  Original Simulation        4  19  2016 Yr    2 of    9 Time  10:15:16
  Original Simulation        4  20  2016 Yr    2 of    9 Time  10:15:16
  Original Simulation        4  21  2016 Yr    2 of    9 Time  10:15:16
  Original Simulation        4  22  2016 Yr    2 of    9 Time  10:15:16
  Original Simulation        4  23  2016 Yr    2 of    9 Time  10:15:16
  Original Simulation        4  24  2016 Yr    2 of    9 Time  10:15:16
  Original Simulation        4  25  2016 Yr    2 of    9 Time  10:15:16
  Original Simulation        4  26  2016 Yr    2 of    9 Time  10:15:16
  Original Simulation        4  27  2016 Yr    2 of    9 Time  10:15:16
  Original Simulation        4  28  2016 Yr    2 of    9 Time  10:15:16
  Original Simulation        4  29  2016 Yr    2 of    9 Time  10:15:16
  Original Simulation        4  30  2016 Yr    2 of    9 Time  10:15:16
  Original Simulation        5   1  2016 Yr    2 of    9 Time  10:15:16
  Original Simulation        5   2  2016 Yr    2 of    9 Time  10:15:16
  Original Simulation        5   3  2016 Yr    2 of    9 Time  10:15:16
  Original Simulation        5   4  2016 Yr    2 of    9 Time  10:15:16
  Original Simulation        5   5  2016 Yr    2 of    9 Time  10:15:16
  Original Simulation        5   6  2016 Yr    2 of    9 Time  10:15:16
  Original Simulation        5   7  2016 Yr    2 of    9 Time  10:15:16
  Original Simulation        5   8  2016 Yr    2 of    9 Time  10:15:16
  Original Simulation        5   9  2016 Yr    2 of    9 Time  10:15:16
  Original Simulation        5  10  2016 Yr    2 of    9 Time  10:15:16
  Original Simulation        5  11  2016 Yr    2 of    9 Time  10:15:16
  Original Simulation        5  12  2016 Yr    2 of    9 Time  10:15:16
  Original Simulation        5  13  2016 Yr    2 of    9 Time  10:15:16
  Original Simulation        5  14  2016 Yr    2 of    9 Time  10:15:16
  Original Simulation        5  15  2016 Yr    2 of    9 Time  10:15:16
  Original Simulation        5  16  2016 Yr    2 of    9 Time  10:15:16
  Original Simulation        5  17  2016 Yr    2 of    9 Time  10:15:16
  Original Simulation        5  18  2016 Yr    2 of    9 Time  10:15:16
  Original Simulation        5  19  2016 Yr    2 of    9 Time  10:15:16
  Original Simulation        5  20  2016 Yr    2 of    9 Time  10:15:16
  Original Simulation        5  21  2016 Yr    2 of    9 Time  10:15:16
  Original Simulation        5  22  2016 Yr    2 of    9 Time  10:15:16
  Original Simulation        5  23  2016 Yr    2 of    9 Time  10:15:16
  Original Simulation        5  24  2016 Yr    2 of    9 Time  10:15:16
  Original Simulation        5  25  2016 Yr    2 of    9 Time  10:15:16
  Original Simulation        5  26  2016 Yr    2 of    9 Time  10:15:16
  Original Simulation        5  27  2016 Yr    2 of    9 Time  10:15:16
  Original Simulation        5  28  2016 Yr    2 of    9 Time  10:15:16
  Original Simulation        5  29  2016 Yr    2 of    9 Time  10:15:16
  Original Simulation        5  30  2016 Yr    2 of    9 Time  10:15:16
  Original Simulation        5  31  2016 Yr    2 of    9 Time  10:15:16
  Original Simulation        6   1  2016 Yr    2 of    9 Time  10:15:16
  Original Simulation        6   2  2016 Yr    2 of    9 Time  10:15:16
  Original Simulation        6   3  2016 Yr    2 of    9 Time  10:15:16
  Original Simulation        6   4  2016 Yr    2 of    9 Time  10:15:16
  Original Simulation        6   5  2016 Yr    2 of    9 Time  10:15:16
  Original Simulation        6   6  2016 Yr    2 of    9 Time  10:15:16
  Original Simulation        6   7  2016 Yr    2 of    9 Time  10:15:16
  Original Simulation        6   8  2016 Yr    2 of    9 Time  10:15:16
  Original Simulation        6   9  2016 Yr    2 of    9 Time  10:15:16
  Original Simulation        6  10  2016 Yr    2 of    9 Time  10:15:16
  Original Simulation        6  11  2016 Yr    2 of    9 Time  10:15:16
  Original Simulation        6  12  2016 Yr    2 of    9 Time  10:15:16
  Original Simulation        6  13  2016 Yr    2 of    9 Time  10:15:16
  Original Simulation        6  14  2016 Yr    2 of    9 Time  10:15:16
  Original Simulation        6  15  2016 Yr    2 of    9 Time  10:15:16
  Original Simulation        6  16  2016 Yr    2 of    9 Time  10:15:16
  Original Simulation        6  17  2016 Yr    2 of    9 Time  10:15:16
  Original Simulation        6  18  2016 Yr    2 of    9 Time  10:15:16
  Original Simulation        6  19  2016 Yr    2 of    9 Time  10:15:16
  Original Simulation        6  20  2016 Yr    2 of    9 Time  10:15:16
  Original Simulation        6  21  2016 Yr    2 of    9 Time  10:15:16
  Original Simulation        6  22  2016 Yr    2 of    9 Time  10:15:16
  Original Simulation        6  23  2016 Yr    2 of    9 Time  10:15:16
  Original Simulation        6  24  2016 Yr    2 of    9 Time  10:15:16
  Original Simulation        6  25  2016 Yr    2 of    9 Time  10:15:16
  Original Simulation        6  26  2016 Yr    2 of    9 Time  10:15:16
  Original Simulation        6  27  2016 Yr    2 of    9 Time  10:15:16
  Original Simulation        6  28  2016 Yr    2 of    9 Time  10:15:16
  Original Simulation        6  29  2016 Yr    2 of    9 Time  10:15:16
  Original Simulation        6  30  2016 Yr    2 of    9 Time  10:15:16
  Original Simulation        7   1  2016 Yr    2 of    9 Time  10:15:16
  Original Simulation        7   2  2016 Yr    2 of    9 Time  10:15:16
  Original Simulation        7   3  2016 Yr    2 of    9 Time  10:15:16
  Original Simulation        7   4  2016 Yr    2 of    9 Time  10:15:16
  Original Simulation        7   5  2016 Yr    2 of    9 Time  10:15:16
  Original Simulation        7   6  2016 Yr    2 of    9 Time  10:15:16
  Original Simulation        7   7  2016 Yr    2 of    9 Time  10:15:16
  Original Simulation        7   8  2016 Yr    2 of    9 Time  10:15:16
  Original Simulation        7   9  2016 Yr    2 of    9 Time  10:15:16
  Original Simulation        7  10  2016 Yr    2 of    9 Time  10:15:16
  Original Simulation        7  11  2016 Yr    2 of    9 Time  10:15:16
  Original Simulation        7  12  2016 Yr    2 of    9 Time  10:15:16
  Original Simulation        7  13  2016 Yr    2 of    9 Time  10:15:16
  Original Simulation        7  14  2016 Yr    2 of    9 Time  10:15:16
  Original Simulation        7  15  2016 Yr    2 of    9 Time  10:15:16
  Original Simulation        7  16  2016 Yr    2 of    9 Time  10:15:16
  Original Simulation        7  17  2016 Yr    2 of    9 Time  10:15:16
  Original Simulation        7  18  2016 Yr    2 of    9 Time  10:15:16
  Original Simulation        7  19  2016 Yr    2 of    9 Time  10:15:16
  Original Simulation        7  20  2016 Yr    2 of    9 Time  10:15:16
  Original Simulation        7  21  2016 Yr    2 of    9 Time  10:15:16
  Original Simulation        7  22  2016 Yr    2 of    9 Time  10:15:16
  Original Simulation        7  23  2016 Yr    2 of    9 Time  10:15:16
  Original Simulation        7  24  2016 Yr    2 of    9 Time  10:15:16
  Original Simulation        7  25  2016 Yr    2 of    9 Time  10:15:16
  Original Simulation        7  26  2016 Yr    2 of    9 Time  10:15:16
  Original Simulation        7  27  2016 Yr    2 of    9 Time  10:15:16
  Original Simulation        7  28  2016 Yr    2 of    9 Time  10:15:16
  Original Simulation        7  29  2016 Yr    2 of    9 Time  10:15:16
  Original Simulation        7  30  2016 Yr    2 of    9 Time  10:15:16
  Original Simulation        7  31  2016 Yr    2 of    9 Time  10:15:16
  Original Simulation        8   1  2016 Yr    2 of    9 Time  10:15:16
  Original Simulation        8   2  2016 Yr    2 of    9 Time  10:15:16
  Original Simulation        8   3  2016 Yr    2 of    9 Time  10:15:16
  Original Simulation        8   4  2016 Yr    2 of    9 Time  10:15:16
  Original Simulation        8   5  2016 Yr    2 of    9 Time  10:15:16
  Original Simulation        8   6  2016 Yr    2 of    9 Time  10:15:16
  Original Simulation        8   7  2016 Yr    2 of    9 Time  10:15:16
  Original Simulation        8   8  2016 Yr    2 of    9 Time  10:15:16
  Original Simulation        8   9  2016 Yr    2 of    9 Time  10:15:17
  Original Simulation        8  10  2016 Yr    2 of    9 Time  10:15:17
  Original Simulation        8  11  2016 Yr    2 of    9 Time  10:15:17
  Original Simulation        8  12  2016 Yr    2 of    9 Time  10:15:17
  Original Simulation        8  13  2016 Yr    2 of    9 Time  10:15:17
  Original Simulation        8  14  2016 Yr    2 of    9 Time  10:15:17
  Original Simulation        8  15  2016 Yr    2 of    9 Time  10:15:17
  Original Simulation        8  16  2016 Yr    2 of    9 Time  10:15:17
  Original Simulation        8  17  2016 Yr    2 of    9 Time  10:15:17
  Original Simulation        8  18  2016 Yr    2 of    9 Time  10:15:17
  Original Simulation        8  19  2016 Yr    2 of    9 Time  10:15:17
  Original Simulation        8  20  2016 Yr    2 of    9 Time  10:15:17
  Original Simulation        8  21  2016 Yr    2 of    9 Time  10:15:17
  Original Simulation        8  22  2016 Yr    2 of    9 Time  10:15:17
  Original Simulation        8  23  2016 Yr    2 of    9 Time  10:15:17
  Original Simulation        8  24  2016 Yr    2 of    9 Time  10:15:17
  Original Simulation        8  25  2016 Yr    2 of    9 Time  10:15:17
  Original Simulation        8  26  2016 Yr    2 of    9 Time  10:15:17
  Original Simulation        8  27  2016 Yr    2 of    9 Time  10:15:17
  Original Simulation        8  28  2016 Yr    2 of    9 Time  10:15:17
  Original Simulation        8  29  2016 Yr    2 of    9 Time  10:15:17
  Original Simulation        8  30  2016 Yr    2 of    9 Time  10:15:17
  Original Simulation        8  31  2016 Yr    2 of    9 Time  10:15:17
  Original Simulation        9   1  2016 Yr    2 of    9 Time  10:15:17
  Original Simulation        9   2  2016 Yr    2 of    9 Time  10:15:17
  Original Simulation        9   3  2016 Yr    2 of    9 Time  10:15:17
  Original Simulation        9   4  2016 Yr    2 of    9 Time  10:15:17
  Original Simulation        9   5  2016 Yr    2 of    9 Time  10:15:17
  Original Simulation        9   6  2016 Yr    2 of    9 Time  10:15:17
  Original Simulation        9   7  2016 Yr    2 of    9 Time  10:15:17
  Original Simulation        9   8  2016 Yr    2 of    9 Time  10:15:17
  Original Simulation        9   9  2016 Yr    2 of    9 Time  10:15:17
  Original Simulation        9  10  2016 Yr    2 of    9 Time  10:15:17
  Original Simulation        9  11  2016 Yr    2 of    9 Time  10:15:17
  Original Simulation        9  12  2016 Yr    2 of    9 Time  10:15:17
  Original Simulation        9  13  2016 Yr    2 of    9 Time  10:15:17
  Original Simulation        9  14  2016 Yr    2 of    9 Time  10:15:17
  Original Simulation        9  15  2016 Yr    2 of    9 Time  10:15:17
  Original Simulation        9  16  2016 Yr    2 of    9 Time  10:15:17
  Original Simulation        9  17  2016 Yr    2 of    9 Time  10:15:17
  Original Simulation        9  18  2016 Yr    2 of    9 Time  10:15:17
  Original Simulation        9  19  2016 Yr    2 of    9 Time  10:15:17
  Original Simulation        9  20  2016 Yr    2 of    9 Time  10:15:17
  Original Simulation        9  21  2016 Yr    2 of    9 Time  10:15:17
  Original Simulation        9  22  2016 Yr    2 of    9 Time  10:15:17
  Original Simulation        9  23  2016 Yr    2 of    9 Time  10:15:17
  Original Simulation        9  24  2016 Yr    2 of    9 Time  10:15:17
  Original Simulation        9  25  2016 Yr    2 of    9 Time  10:15:17
  Original Simulation        9  26  2016 Yr    2 of    9 Time  10:15:17
  Original Simulation        9  27  2016 Yr    2 of    9 Time  10:15:17
  Original Simulation        9  28  2016 Yr    2 of    9 Time  10:15:17
  Original Simulation        9  29  2016 Yr    2 of    9 Time  10:15:17
  Original Simulation        9  30  2016 Yr    2 of    9 Time  10:15:17
  Original Simulation       10   1  2016 Yr    2 of    9 Time  10:15:17
  Original Simulation       10   2  2016 Yr    2 of    9 Time  10:15:17
  Original Simulation       10   3  2016 Yr    2 of    9 Time  10:15:17
  Original Simulation       10   4  2016 Yr    2 of    9 Time  10:15:17
  Original Simulation       10   5  2016 Yr    2 of    9 Time  10:15:17
  Original Simulation       10   6  2016 Yr    2 of    9 Time  10:15:17
  Original Simulation       10   7  2016 Yr    2 of    9 Time  10:15:17
  Original Simulation       10   8  2016 Yr    2 of    9 Time  10:15:17
  Original Simulation       10   9  2016 Yr    2 of    9 Time  10:15:17
  Original Simulation       10  10  2016 Yr    2 of    9 Time  10:15:17
  Original Simulation       10  11  2016 Yr    2 of    9 Time  10:15:17
  Original Simulation       10  12  2016 Yr    2 of    9 Time  10:15:17
  Original Simulation       10  13  2016 Yr    2 of    9 Time  10:15:17
  Original Simulation       10  14  2016 Yr    2 of    9 Time  10:15:17
  Original Simulation       10  15  2016 Yr    2 of    9 Time  10:15:17
  Original Simulation       10  16  2016 Yr    2 of    9 Time  10:15:17
  Original Simulation       10  17  2016 Yr    2 of    9 Time  10:15:17
  Original Simulation       10  18  2016 Yr    2 of    9 Time  10:15:17
  Original Simulation       10  19  2016 Yr    2 of    9 Time  10:15:17
  Original Simulation       10  20  2016 Yr    2 of    9 Time  10:15:17
  Original Simulation       10  21  2016 Yr    2 of    9 Time  10:15:17
  Original Simulation       10  22  2016 Yr    2 of    9 Time  10:15:17
  Original Simulation       10  23  2016 Yr    2 of    9 Time  10:15:17
  Original Simulation       10  24  2016 Yr    2 of    9 Time  10:15:17
  Original Simulation       10  25  2016 Yr    2 of    9 Time  10:15:17
  Original Simulation       10  26  2016 Yr    2 of    9 Time  10:15:17
  Original Simulation       10  27  2016 Yr    2 of    9 Time  10:15:17
  Original Simulation       10  28  2016 Yr    2 of    9 Time  10:15:17
  Original Simulation       10  29  2016 Yr    2 of    9 Time  10:15:17
  Original Simulation       10  30  2016 Yr    2 of    9 Time  10:15:17
  Original Simulation       10  31  2016 Yr    2 of    9 Time  10:15:17
  Original Simulation       11   1  2016 Yr    2 of    9 Time  10:15:17
  Original Simulation       11   2  2016 Yr    2 of    9 Time  10:15:17
  Original Simulation       11   3  2016 Yr    2 of    9 Time  10:15:17
  Original Simulation       11   4  2016 Yr    2 of    9 Time  10:15:17
  Original Simulation       11   5  2016 Yr    2 of    9 Time  10:15:17
  Original Simulation       11   6  2016 Yr    2 of    9 Time  10:15:17
  Original Simulation       11   7  2016 Yr    2 of    9 Time  10:15:17
  Original Simulation       11   8  2016 Yr    2 of    9 Time  10:15:17
  Original Simulation       11   9  2016 Yr    2 of    9 Time  10:15:17
  Original Simulation       11  10  2016 Yr    2 of    9 Time  10:15:17
  Original Simulation       11  11  2016 Yr    2 of    9 Time  10:15:17
  Original Simulation       11  12  2016 Yr    2 of    9 Time  10:15:17
  Original Simulation       11  13  2016 Yr    2 of    9 Time  10:15:17
  Original Simulation       11  14  2016 Yr    2 of    9 Time  10:15:17
  Original Simulation       11  15  2016 Yr    2 of    9 Time  10:15:17
  Original Simulation       11  16  2016 Yr    2 of    9 Time  10:15:17
  Original Simulation       11  17  2016 Yr    2 of    9 Time  10:15:17
  Original Simulation       11  18  2016 Yr    2 of    9 Time  10:15:17
  Original Simulation       11  19  2016 Yr    2 of    9 Time  10:15:17
  Original Simulation       11  20  2016 Yr    2 of    9 Time  10:15:17
  Original Simulation       11  21  2016 Yr    2 of    9 Time  10:15:17
  Original Simulation       11  22  2016 Yr    2 of    9 Time  10:15:17
  Original Simulation       11  23  2016 Yr    2 of    9 Time  10:15:17
  Original Simulation       11  24  2016 Yr    2 of    9 Time  10:15:17
  Original Simulation       11  25  2016 Yr    2 of    9 Time  10:15:17
  Original Simulation       11  26  2016 Yr    2 of    9 Time  10:15:17
  Original Simulation       11  27  2016 Yr    2 of    9 Time  10:15:17
  Original Simulation       11  28  2016 Yr    2 of    9 Time  10:15:17
  Original Simulation       11  29  2016 Yr    2 of    9 Time  10:15:17
  Original Simulation       11  30  2016 Yr    2 of    9 Time  10:15:17
  Original Simulation       12   1  2016 Yr    2 of    9 Time  10:15:17
  Original Simulation       12   2  2016 Yr    2 of    9 Time  10:15:17
  Original Simulation       12   3  2016 Yr    2 of    9 Time  10:15:17
  Original Simulation       12   4  2016 Yr    2 of    9 Time  10:15:17
  Original Simulation       12   5  2016 Yr    2 of    9 Time  10:15:17
  Original Simulation       12   6  2016 Yr    2 of    9 Time  10:15:17
  Original Simulation       12   7  2016 Yr    2 of    9 Time  10:15:17
  Original Simulation       12   8  2016 Yr    2 of    9 Time  10:15:17
  Original Simulation       12   9  2016 Yr    2 of    9 Time  10:15:17
  Original Simulation       12  10  2016 Yr    2 of    9 Time  10:15:17
  Original Simulation       12  11  2016 Yr    2 of    9 Time  10:15:17
  Original Simulation       12  12  2016 Yr    2 of    9 Time  10:15:17
  Original Simulation       12  13  2016 Yr    2 of    9 Time  10:15:17
  Original Simulation       12  14  2016 Yr    2 of    9 Time  10:15:17
  Original Simulation       12  15  2016 Yr    2 of    9 Time  10:15:17
  Original Simulation       12  16  2016 Yr    2 of    9 Time  10:15:17
  Original Simulation       12  17  2016 Yr    2 of    9 Time  10:15:17
  Original Simulation       12  18  2016 Yr    2 of    9 Time  10:15:17
  Original Simulation       12  19  2016 Yr    2 of    9 Time  10:15:17
  Original Simulation       12  20  2016 Yr    2 of    9 Time  10:15:17
  Original Simulation       12  21  2016 Yr    2 of    9 Time  10:15:17
  Original Simulation       12  22  2016 Yr    2 of    9 Time  10:15:17
  Original Simulation       12  23  2016 Yr    2 of    9 Time  10:15:17
  Original Simulation       12  24  2016 Yr    2 of    9 Time  10:15:17
  Original Simulation       12  25  2016 Yr    2 of    9 Time  10:15:17
  Original Simulation       12  26  2016 Yr    2 of    9 Time  10:15:17
  Original Simulation       12  27  2016 Yr    2 of    9 Time  10:15:17
  Original Simulation       12  28  2016 Yr    2 of    9 Time  10:15:17
  Original Simulation       12  29  2016 Yr    2 of    9 Time  10:15:17
  Original Simulation       12  30  2016 Yr    2 of    9 Time  10:15:17
  Original Simulation       12  31  2016 Yr    2 of    9 Time  10:15:17
  Original Simulation        1   1  2017 Yr    3 of    9 Time  10:15:17
  Original Simulation        1   2  2017 Yr    3 of    9 Time  10:15:17
  Original Simulation        1   3  2017 Yr    3 of    9 Time  10:15:17
  Original Simulation        1   4  2017 Yr    3 of    9 Time  10:15:17
  Original Simulation        1   5  2017 Yr    3 of    9 Time  10:15:17
  Original Simulation        1   6  2017 Yr    3 of    9 Time  10:15:17
  Original Simulation        1   7  2017 Yr    3 of    9 Time  10:15:17
  Original Simulation        1   8  2017 Yr    3 of    9 Time  10:15:17
  Original Simulation        1   9  2017 Yr    3 of    9 Time  10:15:18
  Original Simulation        1  10  2017 Yr    3 of    9 Time  10:15:18
  Original Simulation        1  11  2017 Yr    3 of    9 Time  10:15:18
  Original Simulation        1  12  2017 Yr    3 of    9 Time  10:15:18
  Original Simulation        1  13  2017 Yr    3 of    9 Time  10:15:18
  Original Simulation        1  14  2017 Yr    3 of    9 Time  10:15:18
  Original Simulation        1  15  2017 Yr    3 of    9 Time  10:15:18
  Original Simulation        1  16  2017 Yr    3 of    9 Time  10:15:18
  Original Simulation        1  17  2017 Yr    3 of    9 Time  10:15:18
  Original Simulation        1  18  2017 Yr    3 of    9 Time  10:15:18
  Original Simulation        1  19  2017 Yr    3 of    9 Time  10:15:18
  Original Simulation        1  20  2017 Yr    3 of    9 Time  10:15:18
  Original Simulation        1  21  2017 Yr    3 of    9 Time  10:15:18
  Original Simulation        1  22  2017 Yr    3 of    9 Time  10:15:18
  Original Simulation        1  23  2017 Yr    3 of    9 Time  10:15:18
  Original Simulation        1  24  2017 Yr    3 of    9 Time  10:15:18
  Original Simulation        1  25  2017 Yr    3 of    9 Time  10:15:18
  Original Simulation        1  26  2017 Yr    3 of    9 Time  10:15:18
  Original Simulation        1  27  2017 Yr    3 of    9 Time  10:15:18
  Original Simulation        1  28  2017 Yr    3 of    9 Time  10:15:18
  Original Simulation        1  29  2017 Yr    3 of    9 Time  10:15:18
  Original Simulation        1  30  2017 Yr    3 of    9 Time  10:15:18
  Original Simulation        1  31  2017 Yr    3 of    9 Time  10:15:18
  Original Simulation        2   1  2017 Yr    3 of    9 Time  10:15:18
  Original Simulation        2   2  2017 Yr    3 of    9 Time  10:15:18
  Original Simulation        2   3  2017 Yr    3 of    9 Time  10:15:18
  Original Simulation        2   4  2017 Yr    3 of    9 Time  10:15:18
  Original Simulation        2   5  2017 Yr    3 of    9 Time  10:15:18
  Original Simulation        2   6  2017 Yr    3 of    9 Time  10:15:18
  Original Simulation        2   7  2017 Yr    3 of    9 Time  10:15:18
  Original Simulation        2   8  2017 Yr    3 of    9 Time  10:15:18
  Original Simulation        2   9  2017 Yr    3 of    9 Time  10:15:18
  Original Simulation        2  10  2017 Yr    3 of    9 Time  10:15:18
  Original Simulation        2  11  2017 Yr    3 of    9 Time  10:15:18
  Original Simulation        2  12  2017 Yr    3 of    9 Time  10:15:18
  Original Simulation        2  13  2017 Yr    3 of    9 Time  10:15:18
  Original Simulation        2  14  2017 Yr    3 of    9 Time  10:15:18
  Original Simulation        2  15  2017 Yr    3 of    9 Time  10:15:18
  Original Simulation        2  16  2017 Yr    3 of    9 Time  10:15:18
  Original Simulation        2  17  2017 Yr    3 of    9 Time  10:15:18
  Original Simulation        2  18  2017 Yr    3 of    9 Time  10:15:18
  Original Simulation        2  19  2017 Yr    3 of    9 Time  10:15:18
  Original Simulation        2  20  2017 Yr    3 of    9 Time  10:15:18
  Original Simulation        2  21  2017 Yr    3 of    9 Time  10:15:18
  Original Simulation        2  22  2017 Yr    3 of    9 Time  10:15:18
  Original Simulation        2  23  2017 Yr    3 of    9 Time  10:15:18
  Original Simulation        2  24  2017 Yr    3 of    9 Time  10:15:18
  Original Simulation        2  25  2017 Yr    3 of    9 Time  10:15:18
  Original Simulation        2  26  2017 Yr    3 of    9 Time  10:15:18
  Original Simulation        2  27  2017 Yr    3 of    9 Time  10:15:18
  Original Simulation        2  28  2017 Yr    3 of    9 Time  10:15:18
  Original Simulation        3   1  2017 Yr    3 of    9 Time  10:15:18
  Original Simulation        3   2  2017 Yr    3 of    9 Time  10:15:18
  Original Simulation        3   3  2017 Yr    3 of    9 Time  10:15:18
  Original Simulation        3   4  2017 Yr    3 of    9 Time  10:15:18
  Original Simulation        3   5  2017 Yr    3 of    9 Time  10:15:18
  Original Simulation        3   6  2017 Yr    3 of    9 Time  10:15:18
  Original Simulation        3   7  2017 Yr    3 of    9 Time  10:15:18
  Original Simulation        3   8  2017 Yr    3 of    9 Time  10:15:18
  Original Simulation        3   9  2017 Yr    3 of    9 Time  10:15:18
  Original Simulation        3  10  2017 Yr    3 of    9 Time  10:15:18
  Original Simulation        3  11  2017 Yr    3 of    9 Time  10:15:18
  Original Simulation        3  12  2017 Yr    3 of    9 Time  10:15:18
  Original Simulation        3  13  2017 Yr    3 of    9 Time  10:15:18
  Original Simulation        3  14  2017 Yr    3 of    9 Time  10:15:18
  Original Simulation        3  15  2017 Yr    3 of    9 Time  10:15:18
  Original Simulation        3  16  2017 Yr    3 of    9 Time  10:15:18
  Original Simulation        3  17  2017 Yr    3 of    9 Time  10:15:18
  Original Simulation        3  18  2017 Yr    3 of    9 Time  10:15:18
  Original Simulation        3  19  2017 Yr    3 of    9 Time  10:15:18
  Original Simulation        3  20  2017 Yr    3 of    9 Time  10:15:18
  Original Simulation        3  21  2017 Yr    3 of    9 Time  10:15:18
  Original Simulation        3  22  2017 Yr    3 of    9 Time  10:15:18
  Original Simulation        3  23  2017 Yr    3 of    9 Time  10:15:18
  Original Simulation        3  24  2017 Yr    3 of    9 Time  10:15:18
  Original Simulation        3  25  2017 Yr    3 of    9 Time  10:15:18
  Original Simulation        3  26  2017 Yr    3 of    9 Time  10:15:18
  Original Simulation        3  27  2017 Yr    3 of    9 Time  10:15:18
  Original Simulation        3  28  2017 Yr    3 of    9 Time  10:15:18
  Original Simulation        3  29  2017 Yr    3 of    9 Time  10:15:18
  Original Simulation        3  30  2017 Yr    3 of    9 Time  10:15:18
  Original Simulation        3  31  2017 Yr    3 of    9 Time  10:15:18
  Original Simulation        4   1  2017 Yr    3 of    9 Time  10:15:18
  Original Simulation        4   2  2017 Yr    3 of    9 Time  10:15:18
  Original Simulation        4   3  2017 Yr    3 of    9 Time  10:15:18
  Original Simulation        4   4  2017 Yr    3 of    9 Time  10:15:18
  Original Simulation        4   5  2017 Yr    3 of    9 Time  10:15:18
  Original Simulation        4   6  2017 Yr    3 of    9 Time  10:15:18
  Original Simulation        4   7  2017 Yr    3 of    9 Time  10:15:18
  Original Simulation        4   8  2017 Yr    3 of    9 Time  10:15:18
  Original Simulation        4   9  2017 Yr    3 of    9 Time  10:15:18
  Original Simulation        4  10  2017 Yr    3 of    9 Time  10:15:18
  Original Simulation        4  11  2017 Yr    3 of    9 Time  10:15:18
  Original Simulation        4  12  2017 Yr    3 of    9 Time  10:15:18
  Original Simulation        4  13  2017 Yr    3 of    9 Time  10:15:18
  Original Simulation        4  14  2017 Yr    3 of    9 Time  10:15:18
  Original Simulation        4  15  2017 Yr    3 of    9 Time  10:15:18
  Original Simulation        4  16  2017 Yr    3 of    9 Time  10:15:18
  Original Simulation        4  17  2017 Yr    3 of    9 Time  10:15:18
  Original Simulation        4  18  2017 Yr    3 of    9 Time  10:15:18
  Original Simulation        4  19  2017 Yr    3 of    9 Time  10:15:18
  Original Simulation        4  20  2017 Yr    3 of    9 Time  10:15:18
  Original Simulation        4  21  2017 Yr    3 of    9 Time  10:15:18
  Original Simulation        4  22  2017 Yr    3 of    9 Time  10:15:18
  Original Simulation        4  23  2017 Yr    3 of    9 Time  10:15:18
  Original Simulation        4  24  2017 Yr    3 of    9 Time  10:15:18
  Original Simulation        4  25  2017 Yr    3 of    9 Time  10:15:18
  Original Simulation        4  26  2017 Yr    3 of    9 Time  10:15:18
  Original Simulation        4  27  2017 Yr    3 of    9 Time  10:15:18
  Original Simulation        4  28  2017 Yr    3 of    9 Time  10:15:18
  Original Simulation        4  29  2017 Yr    3 of    9 Time  10:15:18
  Original Simulation        4  30  2017 Yr    3 of    9 Time  10:15:18
  Original Simulation        5   1  2017 Yr    3 of    9 Time  10:15:18
  Original Simulation        5   2  2017 Yr    3 of    9 Time  10:15:18
  Original Simulation        5   3  2017 Yr    3 of    9 Time  10:15:18
  Original Simulation        5   4  2017 Yr    3 of    9 Time  10:15:18
  Original Simulation        5   5  2017 Yr    3 of    9 Time  10:15:18
  Original Simulation        5   6  2017 Yr    3 of    9 Time  10:15:18
  Original Simulation        5   7  2017 Yr    3 of    9 Time  10:15:18
  Original Simulation        5   8  2017 Yr    3 of    9 Time  10:15:18
  Original Simulation        5   9  2017 Yr    3 of    9 Time  10:15:18
  Original Simulation        5  10  2017 Yr    3 of    9 Time  10:15:18
  Original Simulation        5  11  2017 Yr    3 of    9 Time  10:15:18
  Original Simulation        5  12  2017 Yr    3 of    9 Time  10:15:18
  Original Simulation        5  13  2017 Yr    3 of    9 Time  10:15:18
  Original Simulation        5  14  2017 Yr    3 of    9 Time  10:15:18
  Original Simulation        5  15  2017 Yr    3 of    9 Time  10:15:18
  Original Simulation        5  16  2017 Yr    3 of    9 Time  10:15:18
  Original Simulation        5  17  2017 Yr    3 of    9 Time  10:15:18
  Original Simulation        5  18  2017 Yr    3 of    9 Time  10:15:18
  Original Simulation        5  19  2017 Yr    3 of    9 Time  10:15:18
  Original Simulation        5  20  2017 Yr    3 of    9 Time  10:15:18
  Original Simulation        5  21  2017 Yr    3 of    9 Time  10:15:18
  Original Simulation        5  22  2017 Yr    3 of    9 Time  10:15:18
  Original Simulation        5  23  2017 Yr    3 of    9 Time  10:15:18
  Original Simulation        5  24  2017 Yr    3 of    9 Time  10:15:18
  Original Simulation        5  25  2017 Yr    3 of    9 Time  10:15:18
  Original Simulation        5  26  2017 Yr    3 of    9 Time  10:15:18
  Original Simulation        5  27  2017 Yr    3 of    9 Time  10:15:18
  Original Simulation        5  28  2017 Yr    3 of    9 Time  10:15:18
  Original Simulation        5  29  2017 Yr    3 of    9 Time  10:15:18
  Original Simulation        5  30  2017 Yr    3 of    9 Time  10:15:18
  Original Simulation        5  31  2017 Yr    3 of    9 Time  10:15:18
  Original Simulation        6   1  2017 Yr    3 of    9 Time  10:15:18
  Original Simulation        6   2  2017 Yr    3 of    9 Time  10:15:18
  Original Simulation        6   3  2017 Yr    3 of    9 Time  10:15:18
  Original Simulation        6   4  2017 Yr    3 of    9 Time  10:15:18
  Original Simulation        6   5  2017 Yr    3 of    9 Time  10:15:18
  Original Simulation        6   6  2017 Yr    3 of    9 Time  10:15:18
  Original Simulation        6   7  2017 Yr    3 of    9 Time  10:15:19
  Original Simulation        6   8  2017 Yr    3 of    9 Time  10:15:19
  Original Simulation        6   9  2017 Yr    3 of    9 Time  10:15:19
  Original Simulation        6  10  2017 Yr    3 of    9 Time  10:15:19
  Original Simulation        6  11  2017 Yr    3 of    9 Time  10:15:19
  Original Simulation        6  12  2017 Yr    3 of    9 Time  10:15:19
  Original Simulation        6  13  2017 Yr    3 of    9 Time  10:15:19
  Original Simulation        6  14  2017 Yr    3 of    9 Time  10:15:19
  Original Simulation        6  15  2017 Yr    3 of    9 Time  10:15:19
  Original Simulation        6  16  2017 Yr    3 of    9 Time  10:15:19
  Original Simulation        6  17  2017 Yr    3 of    9 Time  10:15:19
  Original Simulation        6  18  2017 Yr    3 of    9 Time  10:15:19
  Original Simulation        6  19  2017 Yr    3 of    9 Time  10:15:19
  Original Simulation        6  20  2017 Yr    3 of    9 Time  10:15:19
  Original Simulation        6  21  2017 Yr    3 of    9 Time  10:15:19
  Original Simulation        6  22  2017 Yr    3 of    9 Time  10:15:19
  Original Simulation        6  23  2017 Yr    3 of    9 Time  10:15:19
  Original Simulation        6  24  2017 Yr    3 of    9 Time  10:15:19
  Original Simulation        6  25  2017 Yr    3 of    9 Time  10:15:19
  Original Simulation        6  26  2017 Yr    3 of    9 Time  10:15:19
  Original Simulation        6  27  2017 Yr    3 of    9 Time  10:15:19
  Original Simulation        6  28  2017 Yr    3 of    9 Time  10:15:19
  Original Simulation        6  29  2017 Yr    3 of    9 Time  10:15:19
  Original Simulation        6  30  2017 Yr    3 of    9 Time  10:15:19
  Original Simulation        7   1  2017 Yr    3 of    9 Time  10:15:19
  Original Simulation        7   2  2017 Yr    3 of    9 Time  10:15:19
  Original Simulation        7   3  2017 Yr    3 of    9 Time  10:15:19
  Original Simulation        7   4  2017 Yr    3 of    9 Time  10:15:19
  Original Simulation        7   5  2017 Yr    3 of    9 Time  10:15:19
  Original Simulation        7   6  2017 Yr    3 of    9 Time  10:15:19
  Original Simulation        7   7  2017 Yr    3 of    9 Time  10:15:19
  Original Simulation        7   8  2017 Yr    3 of    9 Time  10:15:19
  Original Simulation        7   9  2017 Yr    3 of    9 Time  10:15:19
  Original Simulation        7  10  2017 Yr    3 of    9 Time  10:15:19
  Original Simulation        7  11  2017 Yr    3 of    9 Time  10:15:19
  Original Simulation        7  12  2017 Yr    3 of    9 Time  10:15:19
  Original Simulation        7  13  2017 Yr    3 of    9 Time  10:15:19
  Original Simulation        7  14  2017 Yr    3 of    9 Time  10:15:19
  Original Simulation        7  15  2017 Yr    3 of    9 Time  10:15:19
  Original Simulation        7  16  2017 Yr    3 of    9 Time  10:15:19
  Original Simulation        7  17  2017 Yr    3 of    9 Time  10:15:19
  Original Simulation        7  18  2017 Yr    3 of    9 Time  10:15:19
  Original Simulation        7  19  2017 Yr    3 of    9 Time  10:15:19
  Original Simulation        7  20  2017 Yr    3 of    9 Time  10:15:19
  Original Simulation        7  21  2017 Yr    3 of    9 Time  10:15:19
  Original Simulation        7  22  2017 Yr    3 of    9 Time  10:15:19
  Original Simulation        7  23  2017 Yr    3 of    9 Time  10:15:19
  Original Simulation        7  24  2017 Yr    3 of    9 Time  10:15:19
  Original Simulation        7  25  2017 Yr    3 of    9 Time  10:15:19
  Original Simulation        7  26  2017 Yr    3 of    9 Time  10:15:19
  Original Simulation        7  27  2017 Yr    3 of    9 Time  10:15:19
  Original Simulation        7  28  2017 Yr    3 of    9 Time  10:15:19
  Original Simulation        7  29  2017 Yr    3 of    9 Time  10:15:19
  Original Simulation        7  30  2017 Yr    3 of    9 Time  10:15:19
  Original Simulation        7  31  2017 Yr    3 of    9 Time  10:15:19
  Original Simulation        8   1  2017 Yr    3 of    9 Time  10:15:19
  Original Simulation        8   2  2017 Yr    3 of    9 Time  10:15:19
  Original Simulation        8   3  2017 Yr    3 of    9 Time  10:15:19
  Original Simulation        8   4  2017 Yr    3 of    9 Time  10:15:19
  Original Simulation        8   5  2017 Yr    3 of    9 Time  10:15:19
  Original Simulation        8   6  2017 Yr    3 of    9 Time  10:15:19
  Original Simulation        8   7  2017 Yr    3 of    9 Time  10:15:19
  Original Simulation        8   8  2017 Yr    3 of    9 Time  10:15:19
  Original Simulation        8   9  2017 Yr    3 of    9 Time  10:15:19
  Original Simulation        8  10  2017 Yr    3 of    9 Time  10:15:19
  Original Simulation        8  11  2017 Yr    3 of    9 Time  10:15:19
  Original Simulation        8  12  2017 Yr    3 of    9 Time  10:15:19
  Original Simulation        8  13  2017 Yr    3 of    9 Time  10:15:19
  Original Simulation        8  14  2017 Yr    3 of    9 Time  10:15:19
  Original Simulation        8  15  2017 Yr    3 of    9 Time  10:15:19
  Original Simulation        8  16  2017 Yr    3 of    9 Time  10:15:19
  Original Simulation        8  17  2017 Yr    3 of    9 Time  10:15:19
  Original Simulation        8  18  2017 Yr    3 of    9 Time  10:15:19
  Original Simulation        8  19  2017 Yr    3 of    9 Time  10:15:19
  Original Simulation        8  20  2017 Yr    3 of    9 Time  10:15:19
  Original Simulation        8  21  2017 Yr    3 of    9 Time  10:15:19
  Original Simulation        8  22  2017 Yr    3 of    9 Time  10:15:19
  Original Simulation        8  23  2017 Yr    3 of    9 Time  10:15:19
  Original Simulation        8  24  2017 Yr    3 of    9 Time  10:15:19
  Original Simulation        8  25  2017 Yr    3 of    9 Time  10:15:19
  Original Simulation        8  26  2017 Yr    3 of    9 Time  10:15:19
  Original Simulation        8  27  2017 Yr    3 of    9 Time  10:15:19
  Original Simulation        8  28  2017 Yr    3 of    9 Time  10:15:19
  Original Simulation        8  29  2017 Yr    3 of    9 Time  10:15:19
  Original Simulation        8  30  2017 Yr    3 of    9 Time  10:15:19
  Original Simulation        8  31  2017 Yr    3 of    9 Time  10:15:19
  Original Simulation        9   1  2017 Yr    3 of    9 Time  10:15:19
  Original Simulation        9   2  2017 Yr    3 of    9 Time  10:15:19
  Original Simulation        9   3  2017 Yr    3 of    9 Time  10:15:19
  Original Simulation        9   4  2017 Yr    3 of    9 Time  10:15:19
  Original Simulation        9   5  2017 Yr    3 of    9 Time  10:15:19
  Original Simulation        9   6  2017 Yr    3 of    9 Time  10:15:19
  Original Simulation        9   7  2017 Yr    3 of    9 Time  10:15:19
  Original Simulation        9   8  2017 Yr    3 of    9 Time  10:15:19
  Original Simulation        9   9  2017 Yr    3 of    9 Time  10:15:19
  Original Simulation        9  10  2017 Yr    3 of    9 Time  10:15:19
  Original Simulation        9  11  2017 Yr    3 of    9 Time  10:15:19
  Original Simulation        9  12  2017 Yr    3 of    9 Time  10:15:19
  Original Simulation        9  13  2017 Yr    3 of    9 Time  10:15:19
  Original Simulation        9  14  2017 Yr    3 of    9 Time  10:15:19
  Original Simulation        9  15  2017 Yr    3 of    9 Time  10:15:19
  Original Simulation        9  16  2017 Yr    3 of    9 Time  10:15:19
  Original Simulation        9  17  2017 Yr    3 of    9 Time  10:15:19
  Original Simulation        9  18  2017 Yr    3 of    9 Time  10:15:19
  Original Simulation        9  19  2017 Yr    3 of    9 Time  10:15:19
  Original Simulation        9  20  2017 Yr    3 of    9 Time  10:15:19
  Original Simulation        9  21  2017 Yr    3 of    9 Time  10:15:19
  Original Simulation        9  22  2017 Yr    3 of    9 Time  10:15:19
  Original Simulation        9  23  2017 Yr    3 of    9 Time  10:15:19
  Original Simulation        9  24  2017 Yr    3 of    9 Time  10:15:19
  Original Simulation        9  25  2017 Yr    3 of    9 Time  10:15:19
  Original Simulation        9  26  2017 Yr    3 of    9 Time  10:15:19
  Original Simulation        9  27  2017 Yr    3 of    9 Time  10:15:19
  Original Simulation        9  28  2017 Yr    3 of    9 Time  10:15:19
  Original Simulation        9  29  2017 Yr    3 of    9 Time  10:15:19
  Original Simulation        9  30  2017 Yr    3 of    9 Time  10:15:19
  Original Simulation       10   1  2017 Yr    3 of    9 Time  10:15:19
  Original Simulation       10   2  2017 Yr    3 of    9 Time  10:15:19
  Original Simulation       10   3  2017 Yr    3 of    9 Time  10:15:19
  Original Simulation       10   4  2017 Yr    3 of    9 Time  10:15:19
  Original Simulation       10   5  2017 Yr    3 of    9 Time  10:15:19
  Original Simulation       10   6  2017 Yr    3 of    9 Time  10:15:19
  Original Simulation       10   7  2017 Yr    3 of    9 Time  10:15:19
  Original Simulation       10   8  2017 Yr    3 of    9 Time  10:15:19
  Original Simulation       10   9  2017 Yr    3 of    9 Time  10:15:19
  Original Simulation       10  10  2017 Yr    3 of    9 Time  10:15:19
  Original Simulation       10  11  2017 Yr    3 of    9 Time  10:15:19
  Original Simulation       10  12  2017 Yr    3 of    9 Time  10:15:19
  Original Simulation       10  13  2017 Yr    3 of    9 Time  10:15:19
  Original Simulation       10  14  2017 Yr    3 of    9 Time  10:15:19
  Original Simulation       10  15  2017 Yr    3 of    9 Time  10:15:19
  Original Simulation       10  16  2017 Yr    3 of    9 Time  10:15:19
  Original Simulation       10  17  2017 Yr    3 of    9 Time  10:15:19
  Original Simulation       10  18  2017 Yr    3 of    9 Time  10:15:19
  Original Simulation       10  19  2017 Yr    3 of    9 Time  10:15:19
  Original Simulation       10  20  2017 Yr    3 of    9 Time  10:15:19
  Original Simulation       10  21  2017 Yr    3 of    9 Time  10:15:19
  Original Simulation       10  22  2017 Yr    3 of    9 Time  10:15:19
  Original Simulation       10  23  2017 Yr    3 of    9 Time  10:15:19
  Original Simulation       10  24  2017 Yr    3 of    9 Time  10:15:19
  Original Simulation       10  25  2017 Yr    3 of    9 Time  10:15:19
  Original Simulation       10  26  2017 Yr    3 of    9 Time  10:15:19
  Original Simulation       10  27  2017 Yr    3 of    9 Time  10:15:19
  Original Simulation       10  28  2017 Yr    3 of    9 Time  10:15:19
  Original Simulation       10  29  2017 Yr    3 of    9 Time  10:15:19
  Original Simulation       10  30  2017 Yr    3 of    9 Time  10:15:19
  Original Simulation       10  31  2017 Yr    3 of    9 Time  10:15:19
  Original Simulation       11   1  2017 Yr    3 of    9 Time  10:15:19
  Original Simulation       11   2  2017 Yr    3 of    9 Time  10:15:19
  Original Simulation       11   3  2017 Yr    3 of    9 Time  10:15:20
  Original Simulation       11   4  2017 Yr    3 of    9 Time  10:15:20
  Original Simulation       11   5  2017 Yr    3 of    9 Time  10:15:20
  Original Simulation       11   6  2017 Yr    3 of    9 Time  10:15:20
  Original Simulation       11   7  2017 Yr    3 of    9 Time  10:15:20
  Original Simulation       11   8  2017 Yr    3 of    9 Time  10:15:20
  Original Simulation       11   9  2017 Yr    3 of    9 Time  10:15:20
  Original Simulation       11  10  2017 Yr    3 of    9 Time  10:15:20
  Original Simulation       11  11  2017 Yr    3 of    9 Time  10:15:20
  Original Simulation       11  12  2017 Yr    3 of    9 Time  10:15:20
  Original Simulation       11  13  2017 Yr    3 of    9 Time  10:15:20
  Original Simulation       11  14  2017 Yr    3 of    9 Time  10:15:20
  Original Simulation       11  15  2017 Yr    3 of    9 Time  10:15:20
  Original Simulation       11  16  2017 Yr    3 of    9 Time  10:15:20
  Original Simulation       11  17  2017 Yr    3 of    9 Time  10:15:20
  Original Simulation       11  18  2017 Yr    3 of    9 Time  10:15:20
  Original Simulation       11  19  2017 Yr    3 of    9 Time  10:15:20
  Original Simulation       11  20  2017 Yr    3 of    9 Time  10:15:20
  Original Simulation       11  21  2017 Yr    3 of    9 Time  10:15:20
  Original Simulation       11  22  2017 Yr    3 of    9 Time  10:15:20
  Original Simulation       11  23  2017 Yr    3 of    9 Time  10:15:20
  Original Simulation       11  24  2017 Yr    3 of    9 Time  10:15:20
  Original Simulation       11  25  2017 Yr    3 of    9 Time  10:15:20
  Original Simulation       11  26  2017 Yr    3 of    9 Time  10:15:20
  Original Simulation       11  27  2017 Yr    3 of    9 Time  10:15:20
  Original Simulation       11  28  2017 Yr    3 of    9 Time  10:15:20
  Original Simulation       11  29  2017 Yr    3 of    9 Time  10:15:20
  Original Simulation       11  30  2017 Yr    3 of    9 Time  10:15:20
  Original Simulation       12   1  2017 Yr    3 of    9 Time  10:15:20
  Original Simulation       12   2  2017 Yr    3 of    9 Time  10:15:20
  Original Simulation       12   3  2017 Yr    3 of    9 Time  10:15:20
  Original Simulation       12   4  2017 Yr    3 of    9 Time  10:15:20
  Original Simulation       12   5  2017 Yr    3 of    9 Time  10:15:20
  Original Simulation       12   6  2017 Yr    3 of    9 Time  10:15:20
  Original Simulation       12   7  2017 Yr    3 of    9 Time  10:15:20
  Original Simulation       12   8  2017 Yr    3 of    9 Time  10:15:20
  Original Simulation       12   9  2017 Yr    3 of    9 Time  10:15:20
  Original Simulation       12  10  2017 Yr    3 of    9 Time  10:15:20
  Original Simulation       12  11  2017 Yr    3 of    9 Time  10:15:20
  Original Simulation       12  12  2017 Yr    3 of    9 Time  10:15:20
  Original Simulation       12  13  2017 Yr    3 of    9 Time  10:15:20
  Original Simulation       12  14  2017 Yr    3 of    9 Time  10:15:20
  Original Simulation       12  15  2017 Yr    3 of    9 Time  10:15:20
  Original Simulation       12  16  2017 Yr    3 of    9 Time  10:15:20
  Original Simulation       12  17  2017 Yr    3 of    9 Time  10:15:20
  Original Simulation       12  18  2017 Yr    3 of    9 Time  10:15:20
  Original Simulation       12  19  2017 Yr    3 of    9 Time  10:15:20
  Original Simulation       12  20  2017 Yr    3 of    9 Time  10:15:20
  Original Simulation       12  21  2017 Yr    3 of    9 Time  10:15:20
  Original Simulation       12  22  2017 Yr    3 of    9 Time  10:15:20
  Original Simulation       12  23  2017 Yr    3 of    9 Time  10:15:20
  Original Simulation       12  24  2017 Yr    3 of    9 Time  10:15:20
  Original Simulation       12  25  2017 Yr    3 of    9 Time  10:15:20
  Original Simulation       12  26  2017 Yr    3 of    9 Time  10:15:20
  Original Simulation       12  27  2017 Yr    3 of    9 Time  10:15:20
  Original Simulation       12  28  2017 Yr    3 of    9 Time  10:15:20
  Original Simulation       12  29  2017 Yr    3 of    9 Time  10:15:20
  Original Simulation       12  30  2017 Yr    3 of    9 Time  10:15:20
  Original Simulation       12  31  2017 Yr    3 of    9 Time  10:15:20
  Original Simulation        1   1  2018 Yr    4 of    9 Time  10:15:20
  Original Simulation        1   2  2018 Yr    4 of    9 Time  10:15:20
  Original Simulation        1   3  2018 Yr    4 of    9 Time  10:15:20
  Original Simulation        1   4  2018 Yr    4 of    9 Time  10:15:20
  Original Simulation        1   5  2018 Yr    4 of    9 Time  10:15:20
  Original Simulation        1   6  2018 Yr    4 of    9 Time  10:15:20
[...]
  Original Simulation        3  31  2023 Yr    9 of    9 Time  10:15:32
  Original Simulation        4   1  2023 Yr    9 of    9 Time  10:15:32
  Original Simulation        4   2  2023 Yr    9 of    9 Time  10:15:32
  Original Simulation        4   3  2023 Yr    9 of    9 Time  10:15:32
  Original Simulation        4   4  2023 Yr    9 of    9 Time  10:15:32
  Original Simulation        4   5  2023 Yr    9 of    9 Time  10:15:32
  Original Simulation        4   6  2023 Yr    9 of    9 Time  10:15:32
  Original Simulation        4   7  2023 Yr    9 of    9 Time  10:15:32
  Original Simulation        4   8  2023 Yr    9 of    9 Time  10:15:32
  Original Simulation        4   9  2023 Yr    9 of    9 Time  10:15:32
  Original Simulation        4  10  2023 Yr    9 of    9 Time  10:15:32
  Original Simulation        4  11  2023 Yr    9 of    9 Time  10:15:32
  Original Simulation        4  12  2023 Yr    9 of    9 Time  10:15:32
  Original Simulation        4  13  2023 Yr    9 of    9 Time  10:15:32
  Original Simulation        4  14  2023 Yr    9 of    9 Time  10:15:32
  Original Simulation        4  15  2023 Yr    9 of    9 Time  10:15:32
  Original Simulation        4  16  2023 Yr    9 of    9 Time  10:15:32
  Original Simulation        4  17  2023 Yr    9 of    9 Time  10:15:32
  Original Simulation        4  18  2023 Yr    9 of    9 Time  10:15:32
  Original Simulation        4  19  2023 Yr    9 of    9 Time  10:15:32
  Original Simulation        4  20  2023 Yr    9 of    9 Time  10:15:32
  Original Simulation        4  21  2023 Yr    9 of    9 Time  10:15:32
  Original Simulation        4  22  2023 Yr    9 of    9 Time  10:15:32
  Original Simulation        4  23  2023 Yr    9 of    9 Time  10:15:32
  Original Simulation        4  24  2023 Yr    9 of    9 Time  10:15:32
  Original Simulation        4  25  2023 Yr    9 of    9 Time  10:15:32
  Original Simulation        4  26  2023 Yr    9 of    9 Time  10:15:32
  Original Simulation        4  27  2023 Yr    9 of    9 Time  10:15:32
  Original Simulation        4  28  2023 Yr    9 of    9 Time  10:15:32
  Original Simulation        4  29  2023 Yr    9 of    9 Time  10:15:32
  Original Simulation        4  30  2023 Yr    9 of    9 Time  10:15:32
  Original Simulation        5   1  2023 Yr    9 of    9 Time  10:15:32
  Original Simulation        5   2  2023 Yr    9 of    9 Time  10:15:32
  Original Simulation        5   3  2023 Yr    9 of    9 Time  10:15:32
  Original Simulation        5   4  2023 Yr    9 of    9 Time  10:15:32
  Original Simulation        5   5  2023 Yr    9 of    9 Time  10:15:32
  Original Simulation        5   6  2023 Yr    9 of    9 Time  10:15:32
  Original Simulation        5   7  2023 Yr    9 of    9 Time  10:15:32
  Original Simulation        5   8  2023 Yr    9 of    9 Time  10:15:32
  Original Simulation        5   9  2023 Yr    9 of    9 Time  10:15:32
  Original Simulation        5  10  2023 Yr    9 of    9 Time  10:15:32
  Original Simulation        5  11  2023 Yr    9 of    9 Time  10:15:32
  Original Simulation        5  12  2023 Yr    9 of    9 Time  10:15:32
  Original Simulation        5  13  2023 Yr    9 of    9 Time  10:15:32
  Original Simulation        5  14  2023 Yr    9 of    9 Time  10:15:32
  Original Simulation        5  15  2023 Yr    9 of    9 Time  10:15:32
  Original Simulation        5  16  2023 Yr    9 of    9 Time  10:15:32
  Original Simulation        5  17  2023 Yr    9 of    9 Time  10:15:32
  Original Simulation        5  18  2023 Yr    9 of    9 Time  10:15:32
  Original Simulation        5  19  2023 Yr    9 of    9 Time  10:15:32
  Original Simulation        5  20  2023 Yr    9 of    9 Time  10:15:32
  Original Simulation        5  21  2023 Yr    9 of    9 Time  10:15:32
  Original Simulation        5  22  2023 Yr    9 of    9 Time  10:15:32
  Original Simulation        5  23  2023 Yr    9 of    9 Time  10:15:32
  Original Simulation        5  24  2023 Yr    9 of    9 Time  10:15:32
  Original Simulation        5  25  2023 Yr    9 of    9 Time  10:15:32
  Original Simulation        5  26  2023 Yr    9 of    9 Time  10:15:32
  Original Simulation        5  27  2023 Yr    9 of    9 Time  10:15:32
  Original Simulation        5  28  2023 Yr    9 of    9 Time  10:15:32
  Original Simulation        5  29  2023 Yr    9 of    9 Time  10:15:32
  Original Simulation        5  30  2023 Yr    9 of    9 Time  10:15:32
  Original Simulation        5  31  2023 Yr    9 of    9 Time  10:15:32
  Original Simulation        6   1  2023 Yr    9 of    9 Time  10:15:32
  Original Simulation        6   2  2023 Yr    9 of    9 Time  10:15:32
  Original Simulation        6   3  2023 Yr    9 of    9 Time  10:15:32
  Original Simulation        6   4  2023 Yr    9 of    9 Time  10:15:32
  Original Simulation        6   5  2023 Yr    9 of    9 Time  10:15:32
  Original Simulation        6   6  2023 Yr    9 of    9 Time  10:15:32
  Original Simulation        6   7  2023 Yr    9 of    9 Time  10:15:32
  Original Simulation        6   8  2023 Yr    9 of    9 Time  10:15:32
  Original Simulation        6   9  2023 Yr    9 of    9 Time  10:15:33
  Original Simulation        6  10  2023 Yr    9 of    9 Time  10:15:33
  Original Simulation        6  11  2023 Yr    9 of    9 Time  10:15:33
  Original Simulation        6  12  2023 Yr    9 of    9 Time  10:15:33
  Original Simulation        6  13  2023 Yr    9 of    9 Time  10:15:33
  Original Simulation        6  14  2023 Yr    9 of    9 Time  10:15:33
  Original Simulation        6  15  2023 Yr    9 of    9 Time  10:15:33
  Original Simulation        6  16  2023 Yr    9 of    9 Time  10:15:33
  Original Simulation        6  17  2023 Yr    9 of    9 Time  10:15:33
  Original Simulation        6  18  2023 Yr    9 of    9 Time  10:15:33
  Original Simulation        6  19  2023 Yr    9 of    9 Time  10:15:33
  Original Simulation        6  20  2023 Yr    9 of    9 Time  10:15:33
  Original Simulation        6  21  2023 Yr    9 of    9 Time  10:15:33
  Original Simulation        6  22  2023 Yr    9 of    9 Time  10:15:33
  Original Simulation        6  23  2023 Yr    9 of    9 Time  10:15:33
  Original Simulation        6  24  2023 Yr    9 of    9 Time  10:15:33
  Original Simulation        6  25  2023 Yr    9 of    9 Time  10:15:33
  Original Simulation        6  26  2023 Yr    9 of    9 Time  10:15:33
  Original Simulation        6  27  2023 Yr    9 of    9 Time  10:15:33
  Original Simulation        6  28  2023 Yr    9 of    9 Time  10:15:33
  Original Simulation        6  29  2023 Yr    9 of    9 Time  10:15:33
  Original Simulation        6  30  2023 Yr    9 of    9 Time  10:15:33
  Original Simulation        7   1  2023 Yr    9 of    9 Time  10:15:33
  Original Simulation        7   2  2023 Yr    9 of    9 Time  10:15:33
  Original Simulation        7   3  2023 Yr    9 of    9 Time  10:15:33
  Original Simulation        7   4  2023 Yr    9 of    9 Time  10:15:33
  Original Simulation        7   5  2023 Yr    9 of    9 Time  10:15:33
  Original Simulation        7   6  2023 Yr    9 of    9 Time  10:15:33
  Original Simulation        7   7  2023 Yr    9 of    9 Time  10:15:33
  Original Simulation        7   8  2023 Yr    9 of    9 Time  10:15:33
  Original Simulation        7   9  2023 Yr    9 of    9 Time  10:15:33
  Original Simulation        7  10  2023 Yr    9 of    9 Time  10:15:33
  Original Simulation        7  11  2023 Yr    9 of    9 Time  10:15:33
  Original Simulation        7  12  2023 Yr    9 of    9 Time  10:15:33
  Original Simulation        7  13  2023 Yr    9 of    9 Time  10:15:33
  Original Simulation        7  14  2023 Yr    9 of    9 Time  10:15:33
  Original Simulation        7  15  2023 Yr    9 of    9 Time  10:15:33
  Original Simulation        7  16  2023 Yr    9 of    9 Time  10:15:33
  Original Simulation        7  17  2023 Yr    9 of    9 Time  10:15:33
  Original Simulation        7  18  2023 Yr    9 of    9 Time  10:15:33
  Original Simulation        7  19  2023 Yr    9 of    9 Time  10:15:33
  Original Simulation        7  20  2023 Yr    9 of    9 Time  10:15:33
  Original Simulation        7  21  2023 Yr    9 of    9 Time  10:15:33
  Original Simulation        7  22  2023 Yr    9 of    9 Time  10:15:33
  Original Simulation        7  23  2023 Yr    9 of    9 Time  10:15:33
  Original Simulation        7  24  2023 Yr    9 of    9 Time  10:15:33
  Original Simulation        7  25  2023 Yr    9 of    9 Time  10:15:33
  Original Simulation        7  26  2023 Yr    9 of    9 Time  10:15:33
  Original Simulation        7  27  2023 Yr    9 of    9 Time  10:15:33
  Original Simulation        7  28  2023 Yr    9 of    9 Time  10:15:33
  Original Simulation        7  29  2023 Yr    9 of    9 Time  10:15:33
  Original Simulation        7  30  2023 Yr    9 of    9 Time  10:15:33
  Original Simulation        7  31  2023 Yr    9 of    9 Time  10:15:33
  Original Simulation        8   1  2023 Yr    9 of    9 Time  10:15:33
  Original Simulation        8   2  2023 Yr    9 of    9 Time  10:15:33
  Original Simulation        8   3  2023 Yr    9 of    9 Time  10:15:33
  Original Simulation        8   4  2023 Yr    9 of    9 Time  10:15:33
  Original Simulation        8   5  2023 Yr    9 of    9 Time  10:15:33
  Original Simulation        8   6  2023 Yr    9 of    9 Time  10:15:33
  Original Simulation        8   7  2023 Yr    9 of    9 Time  10:15:33
  Original Simulation        8   8  2023 Yr    9 of    9 Time  10:15:33
  Original Simulation        8   9  2023 Yr    9 of    9 Time  10:15:33
  Original Simulation        8  10  2023 Yr    9 of    9 Time  10:15:33
  Original Simulation        8  11  2023 Yr    9 of    9 Time  10:15:33
  Original Simulation        8  12  2023 Yr    9 of    9 Time  10:15:33
  Original Simulation        8  13  2023 Yr    9 of    9 Time  10:15:33
  Original Simulation        8  14  2023 Yr    9 of    9 Time  10:15:33
  Original Simulation        8  15  2023 Yr    9 of    9 Time  10:15:33
  Original Simulation        8  16  2023 Yr    9 of    9 Time  10:15:33
  Original Simulation        8  17  2023 Yr    9 of    9 Time  10:15:33
  Original Simulation        8  18  2023 Yr    9 of    9 Time  10:15:33
  Original Simulation        8  19  2023 Yr    9 of    9 Time  10:15:33
  Original Simulation        8  20  2023 Yr    9 of    9 Time  10:15:33
  Original Simulation        8  21  2023 Yr    9 of    9 Time  10:15:33
  Original Simulation        8  22  2023 Yr    9 of    9 Time  10:15:33
  Original Simulation        8  23  2023 Yr    9 of    9 Time  10:15:33
  Original Simulation        8  24  2023 Yr    9 of    9 Time  10:15:33
  Original Simulation        8  25  2023 Yr    9 of    9 Time  10:15:33
  Original Simulation        8  26  2023 Yr    9 of    9 Time  10:15:33
  Original Simulation        8  27  2023 Yr    9 of    9 Time  10:15:33
  Original Simulation        8  28  2023 Yr    9 of    9 Time  10:15:33
  Original Simulation        8  29  2023 Yr    9 of    9 Time  10:15:33
  Original Simulation        8  30  2023 Yr    9 of    9 Time  10:15:33
  Original Simulation        8  31  2023 Yr    9 of    9 Time  10:15:33
  Original Simulation        9   1  2023 Yr    9 of    9 Time  10:15:33
  Original Simulation        9   2  2023 Yr    9 of    9 Time  10:15:33
  Original Simulation        9   3  2023 Yr    9 of    9 Time  10:15:33
  Original Simulation        9   4  2023 Yr    9 of    9 Time  10:15:33
  Original Simulation        9   5  2023 Yr    9 of    9 Time  10:15:33
  Original Simulation        9   6  2023 Yr    9 of    9 Time  10:15:33
  Original Simulation        9   7  2023 Yr    9 of    9 Time  10:15:33
  Original Simulation        9   8  2023 Yr    9 of    9 Time  10:15:33
  Original Simulation        9   9  2023 Yr    9 of    9 Time  10:15:33
  Original Simulation        9  10  2023 Yr    9 of    9 Time  10:15:33
  Original Simulation        9  11  2023 Yr    9 of    9 Time  10:15:33
  Original Simulation        9  12  2023 Yr    9 of    9 Time  10:15:33
  Original Simulation        9  13  2023 Yr    9 of    9 Time  10:15:33
  Original Simulation        9  14  2023 Yr    9 of    9 Time  10:15:33
  Original Simulation        9  15  2023 Yr    9 of    9 Time  10:15:33
  Original Simulation        9  16  2023 Yr    9 of    9 Time  10:15:33
  Original Simulation        9  17  2023 Yr    9 of    9 Time  10:15:33
  Original Simulation        9  18  2023 Yr    9 of    9 Time  10:15:33
  Original Simulation        9  19  2023 Yr    9 of    9 Time  10:15:33
  Original Simulation        9  20  2023 Yr    9 of    9 Time  10:15:33
  Original Simulation        9  21  2023 Yr    9 of    9 Time  10:15:33
  Original Simulation        9  22  2023 Yr    9 of    9 Time  10:15:33
  Original Simulation        9  23  2023 Yr    9 of    9 Time  10:15:33
  Original Simulation        9  24  2023 Yr    9 of    9 Time  10:15:33
  Original Simulation        9  25  2023 Yr    9 of    9 Time  10:15:33
  Original Simulation        9  26  2023 Yr    9 of    9 Time  10:15:33
  Original Simulation        9  27  2023 Yr    9 of    9 Time  10:15:33
  Original Simulation        9  28  2023 Yr    9 of    9 Time  10:15:33
  Original Simulation        9  29  2023 Yr    9 of    9 Time  10:15:33
  Original Simulation        9  30  2023 Yr    9 of    9 Time  10:15:33
  Original Simulation       10   1  2023 Yr    9 of    9 Time  10:15:33
  Original Simulation       10   2  2023 Yr    9 of    9 Time  10:15:33
  Original Simulation       10   3  2023 Yr    9 of    9 Time  10:15:33
  Original Simulation       10   4  2023 Yr    9 of    9 Time  10:15:33
  Original Simulation       10   5  2023 Yr    9 of    9 Time  10:15:33
  Original Simulation       10   6  2023 Yr    9 of    9 Time  10:15:33
  Original Simulation       10   7  2023 Yr    9 of    9 Time  10:15:33
  Original Simulation       10   8  2023 Yr    9 of    9 Time  10:15:33
  Original Simulation       10   9  2023 Yr    9 of    9 Time  10:15:33
  Original Simulation       10  10  2023 Yr    9 of    9 Time  10:15:33
  Original Simulation       10  11  2023 Yr    9 of    9 Time  10:15:33
  Original Simulation       10  12  2023 Yr    9 of    9 Time  10:15:33
  Original Simulation       10  13  2023 Yr    9 of    9 Time  10:15:33
  Original Simulation       10  14  2023 Yr    9 of    9 Time  10:15:33
  Original Simulation       10  15  2023 Yr    9 of    9 Time  10:15:33
  Original Simulation       10  16  2023 Yr    9 of    9 Time  10:15:33
  Original Simulation       10  17  2023 Yr    9 of    9 Time  10:15:33
  Original Simulation       10  18  2023 Yr    9 of    9 Time  10:15:33
  Original Simulation       10  19  2023 Yr    9 of    9 Time  10:15:33
  Original Simulation       10  20  2023 Yr    9 of    9 Time  10:15:33
  Original Simulation       10  21  2023 Yr    9 of    9 Time  10:15:33
  Original Simulation       10  22  2023 Yr    9 of    9 Time  10:15:33
  Original Simulation       10  23  2023 Yr    9 of    9 Time  10:15:33
  Original Simulation       10  24  2023 Yr    9 of    9 Time  10:15:33
  Original Simulation       10  25  2023 Yr    9 of    9 Time  10:15:33
  Original Simulation       10  26  2023 Yr    9 of    9 Time  10:15:33
  Original Simulation       10  27  2023 Yr    9 of    9 Time  10:15:33
  Original Simulation       10  28  2023 Yr    9 of    9 Time  10:15:33
  Original Simulation       10  29  2023 Yr    9 of    9 Time  10:15:33
  Original Simulation       10  30  2023 Yr    9 of    9 Time  10:15:33
  Original Simulation       10  31  2023 Yr    9 of    9 Time  10:15:33
  Original Simulation       11   1  2023 Yr    9 of    9 Time  10:15:33
  Original Simulation       11   2  2023 Yr    9 of    9 Time  10:15:33
  Original Simulation       11   3  2023 Yr    9 of    9 Time  10:15:33
  Original Simulation       11   4  2023 Yr    9 of    9 Time  10:15:33
  Original Simulation       11   5  2023 Yr    9 of    9 Time  10:15:33
  Original Simulation       11   6  2023 Yr    9 of    9 Time  10:15:33
  Original Simulation       11   7  2023 Yr    9 of    9 Time  10:15:33
  Original Simulation       11   8  2023 Yr    9 of    9 Time  10:15:33
  Original Simulation       11   9  2023 Yr    9 of    9 Time  10:15:33
  Original Simulation       11  10  2023 Yr    9 of    9 Time  10:15:33
  Original Simulation       11  11  2023 Yr    9 of    9 Time  10:15:33
  Original Simulation       11  12  2023 Yr    9 of    9 Time  10:15:33
  Original Simulation       11  13  2023 Yr    9 of    9 Time  10:15:33
  Original Simulation       11  14  2023 Yr    9 of    9 Time  10:15:34
  Original Simulation       11  15  2023 Yr    9 of    9 Time  10:15:34
  Original Simulation       11  16  2023 Yr    9 of    9 Time  10:15:34
  Original Simulation       11  17  2023 Yr    9 of    9 Time  10:15:34
  Original Simulation       11  18  2023 Yr    9 of    9 Time  10:15:34
  Original Simulation       11  19  2023 Yr    9 of    9 Time  10:15:34
  Original Simulation       11  20  2023 Yr    9 of    9 Time  10:15:34
  Original Simulation       11  21  2023 Yr    9 of    9 Time  10:15:34
  Original Simulation       11  22  2023 Yr    9 of    9 Time  10:15:34
  Original Simulation       11  23  2023 Yr    9 of    9 Time  10:15:34
  Original Simulation       11  24  2023 Yr    9 of    9 Time  10:15:34
  Original Simulation       11  25  2023 Yr    9 of    9 Time  10:15:34
  Original Simulation       11  26  2023 Yr    9 of    9 Time  10:15:34
  Original Simulation       11  27  2023 Yr    9 of    9 Time  10:15:34
  Original Simulation       11  28  2023 Yr    9 of    9 Time  10:15:34
  Original Simulation       11  29  2023 Yr    9 of    9 Time  10:15:34
  Original Simulation       11  30  2023 Yr    9 of    9 Time  10:15:34
  Original Simulation       12   1  2023 Yr    9 of    9 Time  10:15:34
  Original Simulation       12   2  2023 Yr    9 of    9 Time  10:15:34
  Original Simulation       12   3  2023 Yr    9 of    9 Time  10:15:34
  Original Simulation       12   4  2023 Yr    9 of    9 Time  10:15:34
  Original Simulation       12   5  2023 Yr    9 of    9 Time  10:15:34
  Original Simulation       12   6  2023 Yr    9 of    9 Time  10:15:34
  Original Simulation       12   7  2023 Yr    9 of    9 Time  10:15:34
  Original Simulation       12   8  2023 Yr    9 of    9 Time  10:15:34
  Original Simulation       12   9  2023 Yr    9 of    9 Time  10:15:34
  Original Simulation       12  10  2023 Yr    9 of    9 Time  10:15:34
  Original Simulation       12  11  2023 Yr    9 of    9 Time  10:15:34
  Original Simulation       12  12  2023 Yr    9 of    9 Time  10:15:34
  Original Simulation       12  13  2023 Yr    9 of    9 Time  10:15:34
  Original Simulation       12  14  2023 Yr    9 of    9 Time  10:15:34
  Original Simulation       12  15  2023 Yr    9 of    9 Time  10:15:34
  Original Simulation       12  16  2023 Yr    9 of    9 Time  10:15:34
  Original Simulation       12  17  2023 Yr    9 of    9 Time  10:15:34
  Original Simulation       12  18  2023 Yr    9 of    9 Time  10:15:34
  Original Simulation       12  19  2023 Yr    9 of    9 Time  10:15:34
  Original Simulation       12  20  2023 Yr    9 of    9 Time  10:15:34
  Original Simulation       12  21  2023 Yr    9 of    9 Time  10:15:34
  Original Simulation       12  22  2023 Yr    9 of    9 Time  10:15:34
  Original Simulation       12  23  2023 Yr    9 of    9 Time  10:15:34
  Original Simulation       12  24  2023 Yr    9 of    9 Time  10:15:34
  Original Simulation       12  25  2023 Yr    9 of    9 Time  10:15:34
  Original Simulation       12  26  2023 Yr    9 of    9 Time  10:15:34
  Original Simulation       12  27  2023 Yr    9 of    9 Time  10:15:34
  Original Simulation       12  28  2023 Yr    9 of    9 Time  10:15:34
  Original Simulation       12  29  2023 Yr    9 of    9 Time  10:15:34
  Original Simulation       12  30  2023 Yr    9 of    9 Time  10:15:34
  Original Simulation       12  31  2023 Yr    9 of    9 Time  10:15:34

 Execution successfully completed 

  Date of Sim   8/15/2024 Time  10:15:34
