                   SWAT+               
             Revision 60.5.6          
      Soil & Water Assessment Tool    
               PC Version             
    Program reading . . . executing


  Date of Sim   1/25/2024 Time   9: 5:52
 reading from precipitation file         Time   9: 5:52
 reading from temperature file           Time   9: 5:52
 reading from solar radiation file       Time   9: 5:52
 reading from relative humidity file     Time   9: 5:52
 reading from wind file                  Time   9: 5:52
 reading from wgn file                   Time   9: 5:52
 reading from wx station file            Time   9: 5:52
  Original Simulation        1   1  2010 Yr    1 of   14 Time   9: 5:54
  Original Simulation        1   2  2010 Yr    1 of   14 Time   9:17: 6
  Original Simulation        1   3  2010 Yr    1 of   14 Time   9:17: 7
  Original Simulation        1   4  2010 Yr    1 of   14 Time   9:17: 8
  Original Simulation        1   5  2010 Yr    1 of   14 Time   9:17: 9
  Original Simulation        1   6  2010 Yr    1 of   14 Time   9:17:10
  Original Simulation        1   7  2010 Yr    1 of   14 Time   9:17:11
  Original Simulation        1   8  2010 Yr    1 of   14 Time   9:17:11
  Original Simulation        1   9  2010 Yr    1 of   14 Time   9:17:12
  Original Simulation        1  10  2010 Yr    1 of   14 Time   9:17:13
  Original Simulation        1  11  2010 Yr    1 of   14 Time   9:17:14
  Original Simulation        1  12  2010 Yr    1 of   14 Time   9:17:15
  Original Simulation        1  13  2010 Yr    1 of   14 Time   9:17:15
  Original Simulation        1  14  2010 Yr    1 of   14 Time   9:17:16
  Original Simulation        1  15  2010 Yr    1 of   14 Time   9:17:17
  Original Simulation        1  16  2010 Yr    1 of   14 Time   9:17:18
  Original Simulation        1  17  2010 Yr    1 of   14 Time   9:17:19
  Original Simulation        1  18  2010 Yr    1 of   14 Time   9:17:19
  Original Simulation        1  19  2010 Yr    1 of   14 Time   9:17:20
  Original Simulation        1  20  2010 Yr    1 of   14 Time   9:17:21
  Original Simulation        1  21  2010 Yr    1 of   14 Time   9:17:22
  Original Simulation        1  22  2010 Yr    1 of   14 Time   9:17:23
  Original Simulation        1  23  2010 Yr    1 of   14 Time   9:17:23
  Original Simulation        1  24  2010 Yr    1 of   14 Time   9:17:24
  Original Simulation        1  25  2010 Yr    1 of   14 Time   9:17:25
  Original Simulation        1  26  2010 Yr    1 of   14 Time   9:17:26
  Original Simulation        1  27  2010 Yr    1 of   14 Time   9:17:27
  Original Simulation        1  28  2010 Yr    1 of   14 Time   9:17:28
  Original Simulation        1  29  2010 Yr    1 of   14 Time   9:17:28
  Original Simulation        1  30  2010 Yr    1 of   14 Time   9:17:29
  Original Simulation        1  31  2010 Yr    1 of   14 Time   9:17:30
  Original Simulation        2   1  2010 Yr    1 of   14 Time   9:17:31
  Original Simulation        2   2  2010 Yr    1 of   14 Time   9:17:32
  Original Simulation        2   3  2010 Yr    1 of   14 Time   9:17:33
  Original Simulation        2   4  2010 Yr    1 of   14 Time   9:17:33
  Original Simulation        2   5  2010 Yr    1 of   14 Time   9:17:34
  Original Simulation        2   6  2010 Yr    1 of   14 Time   9:17:35
  Original Simulation        2   7  2010 Yr    1 of   14 Time   9:17:36
  Original Simulation        2   8  2010 Yr    1 of   14 Time   9:17:37
  Original Simulation        2   9  2010 Yr    1 of   14 Time   9:17:37
  Original Simulation        2  10  2010 Yr    1 of   14 Time   9:17:38
  Original Simulation        2  11  2010 Yr    1 of   14 Time   9:17:39
  Original Simulation        2  12  2010 Yr    1 of   14 Time   9:17:40
  Original Simulation        2  13  2010 Yr    1 of   14 Time   9:17:41
  Original Simulation        2  14  2010 Yr    1 of   14 Time   9:17:42
  Original Simulation        2  15  2010 Yr    1 of   14 Time   9:17:43
  Original Simulation        2  16  2010 Yr    1 of   14 Time   9:17:44
  Original Simulation        2  17  2010 Yr    1 of   14 Time   9:17:44
  Original Simulation        2  18  2010 Yr    1 of   14 Time   9:17:45
  Original Simulation        2  19  2010 Yr    1 of   14 Time   9:17:46
  Original Simulation        2  20  2010 Yr    1 of   14 Time   9:17:47
  Original Simulation        2  21  2010 Yr    1 of   14 Time   9:17:48
  Original Simulation        2  22  2010 Yr    1 of   14 Time   9:17:49
  Original Simulation        2  23  2010 Yr    1 of   14 Time   9:17:50
  Original Simulation        2  24  2010 Yr    1 of   14 Time   9:17:50
  Original Simulation        2  25  2010 Yr    1 of   14 Time   9:17:51
  Original Simulation        2  26  2010 Yr    1 of   14 Time   9:17:52
  Original Simulation        2  27  2010 Yr    1 of   14 Time   9:17:53
  Original Simulation        2  28  2010 Yr    1 of   14 Time   9:17:54
  Original Simulation        3   1  2010 Yr    1 of   14 Time   9:17:55
  Original Simulation        3   2  2010 Yr    1 of   14 Time   9:17:56
  Original Simulation        3   3  2010 Yr    1 of   14 Time   9:17:57
  Original Simulation        3   4  2010 Yr    1 of   14 Time   9:17:57
  Original Simulation        3   5  2010 Yr    1 of   14 Time   9:17:58
  Original Simulation        3   6  2010 Yr    1 of   14 Time   9:17:59
  Original Simulation        3   7  2010 Yr    1 of   14 Time   9:18: 0
  Original Simulation        3   8  2010 Yr    1 of   14 Time   9:18: 1
  Original Simulation        3   9  2010 Yr    1 of   14 Time   9:18: 2
  Original Simulation        3  10  2010 Yr    1 of   14 Time   9:18: 3
  Original Simulation        3  11  2010 Yr    1 of   14 Time   9:18: 4
  Original Simulation        3  12  2010 Yr    1 of   14 Time   9:18: 5
  Original Simulation        3  13  2010 Yr    1 of   14 Time   9:18: 5
  Original Simulation        3  14  2010 Yr    1 of   14 Time   9:18: 6
  Original Simulation        3  15  2010 Yr    1 of   14 Time   9:18: 7
  Original Simulation        3  16  2010 Yr    1 of   14 Time   9:18: 8
  Original Simulation        3  17  2010 Yr    1 of   14 Time   9:18: 9
  Original Simulation        3  18  2010 Yr    1 of   14 Time   9:18:10
  Original Simulation        3  19  2010 Yr    1 of   14 Time   9:18:11
  Original Simulation        3  20  2010 Yr    1 of   14 Time   9:18:12
  Original Simulation        3  21  2010 Yr    1 of   14 Time   9:18:12
  Original Simulation        3  22  2010 Yr    1 of   14 Time   9:18:13
  Original Simulation        3  23  2010 Yr    1 of   14 Time   9:18:14
  Original Simulation        3  24  2010 Yr    1 of   14 Time   9:18:15
  Original Simulation        3  25  2010 Yr    1 of   14 Time   9:18:16
  Original Simulation        3  26  2010 Yr    1 of   14 Time   9:18:17
  Original Simulation        3  27  2010 Yr    1 of   14 Time   9:18:18
  Original Simulation        3  28  2010 Yr    1 of   14 Time   9:18:19
  Original Simulation        3  29  2010 Yr    1 of   14 Time   9:18:20
  Original Simulation        3  30  2010 Yr    1 of   14 Time   9:18:20
  Original Simulation        3  31  2010 Yr    1 of   14 Time   9:18:21
  Original Simulation        4   1  2010 Yr    1 of   14 Time   9:18:22
  Original Simulation        4   2  2010 Yr    1 of   14 Time   9:18:23
  Original Simulation        4   3  2010 Yr    1 of   14 Time   9:18:24
  Original Simulation        4   4  2010 Yr    1 of   14 Time   9:18:25
  Original Simulation        4   5  2010 Yr    1 of   14 Time   9:18:26
  Original Simulation        4   6  2010 Yr    1 of   14 Time   9:18:27
  Original Simulation        4   7  2010 Yr    1 of   14 Time   9:18:28
  Original Simulation        4   8  2010 Yr    1 of   14 Time   9:18:28
  Original Simulation        4   9  2010 Yr    1 of   14 Time   9:18:29
  Original Simulation        4  10  2010 Yr    1 of   14 Time   9:18:30
  Original Simulation        4  11  2010 Yr    1 of   14 Time   9:18:31
  Original Simulation        4  12  2010 Yr    1 of   14 Time   9:18:32
  Original Simulation        4  13  2010 Yr    1 of   14 Time   9:18:33
  Original Simulation        4  14  2010 Yr    1 of   14 Time   9:18:34
  Original Simulation        4  15  2010 Yr    1 of   14 Time   9:18:35
  Original Simulation        4  16  2010 Yr    1 of   14 Time   9:18:35
  Original Simulation        4  17  2010 Yr    1 of   14 Time   9:18:36
  Original Simulation        4  18  2010 Yr    1 of   14 Time   9:18:37
  Original Simulation        4  19  2010 Yr    1 of   14 Time   9:18:38
  Original Simulation        4  20  2010 Yr    1 of   14 Time   9:18:39
  Original Simulation        4  21  2010 Yr    1 of   14 Time   9:18:40
  Original Simulation        4  22  2010 Yr    1 of   14 Time   9:18:41
  Original Simulation        4  23  2010 Yr    1 of   14 Time   9:18:42
  Original Simulation        4  24  2010 Yr    1 of   14 Time   9:18:43
  Original Simulation        4  25  2010 Yr    1 of   14 Time   9:18:43
  Original Simulation        4  26  2010 Yr    1 of   14 Time   9:18:44
  Original Simulation        4  27  2010 Yr    1 of   14 Time   9:18:45
  Original Simulation        4  28  2010 Yr    1 of   14 Time   9:18:46
  Original Simulation        4  29  2010 Yr    1 of   14 Time   9:18:47
  Original Simulation        4  30  2010 Yr    1 of   14 Time   9:18:48
  Original Simulation        5   1  2010 Yr    1 of   14 Time   9:18:49
  Original Simulation        5   2  2010 Yr    1 of   14 Time   9:18:50
  Original Simulation        5   3  2010 Yr    1 of   14 Time   9:18:51
  Original Simulation        5   4  2010 Yr    1 of   14 Time   9:18:51
  Original Simulation        5   5  2010 Yr    1 of   14 Time   9:18:52
  Original Simulation        5   6  2010 Yr    1 of   14 Time   9:18:53
  Original Simulation        5   7  2010 Yr    1 of   14 Time   9:18:54
  Original Simulation        5   8  2010 Yr    1 of   14 Time   9:18:55
  Original Simulation        5   9  2010 Yr    1 of   14 Time   9:18:56
  Original Simulation        5  10  2010 Yr    1 of   14 Time   9:18:57
  Original Simulation        5  11  2010 Yr    1 of   14 Time   9:18:58
  Original Simulation        5  12  2010 Yr    1 of   14 Time   9:18:59
  Original Simulation        5  13  2010 Yr    1 of   14 Time   9:19: 0
  Original Simulation        5  14  2010 Yr    1 of   14 Time   9:19: 1
  Original Simulation        5  15  2010 Yr    1 of   14 Time   9:19: 2
  Original Simulation        5  16  2010 Yr    1 of   14 Time   9:19: 3
  Original Simulation        5  17  2010 Yr    1 of   14 Time   9:19: 4
  Original Simulation        5  18  2010 Yr    1 of   14 Time   9:19: 5
  Original Simulation        5  19  2010 Yr    1 of   14 Time   9:19: 6
  Original Simulation        5  20  2010 Yr    1 of   14 Time   9:19: 6
  Original Simulation        5  21  2010 Yr    1 of   14 Time   9:19: 7
  Original Simulation        5  22  2010 Yr    1 of   14 Time   9:19: 8
  Original Simulation        5  23  2010 Yr    1 of   14 Time   9:19: 9
  Original Simulation        5  24  2010 Yr    1 of   14 Time   9:19:10
  Original Simulation        5  25  2010 Yr    1 of   14 Time   9:19:11
  Original Simulation        5  26  2010 Yr    1 of   14 Time   9:19:12
  Original Simulation        5  27  2010 Yr    1 of   14 Time   9:19:13
  Original Simulation        5  28  2010 Yr    1 of   14 Time   9:19:14
  Original Simulation        5  29  2010 Yr    1 of   14 Time   9:19:15
  Original Simulation        5  30  2010 Yr    1 of   14 Time   9:19:16
  Original Simulation        5  31  2010 Yr    1 of   14 Time   9:19:17
  Original Simulation        6   1  2010 Yr    1 of   14 Time   9:19:18
  Original Simulation        6   2  2010 Yr    1 of   14 Time   9:19:19
  Original Simulation        6   3  2010 Yr    1 of   14 Time   9:19:20
  Original Simulation        6   4  2010 Yr    1 of   14 Time   9:19:21
  Original Simulation        6   5  2010 Yr    1 of   14 Time   9:19:22
  Original Simulation        6   6  2010 Yr    1 of   14 Time   9:19:23
  Original Simulation        6   7  2010 Yr    1 of   14 Time   9:19:23
  Original Simulation        6   8  2010 Yr    1 of   14 Time   9:19:24
  Original Simulation        6   9  2010 Yr    1 of   14 Time   9:19:25
  Original Simulation        6  10  2010 Yr    1 of   14 Time   9:19:26
  Original Simulation        6  11  2010 Yr    1 of   14 Time   9:19:27
  Original Simulation        6  12  2010 Yr    1 of   14 Time   9:19:28
  Original Simulation        6  13  2010 Yr    1 of   14 Time   9:19:29
  Original Simulation        6  14  2010 Yr    1 of   14 Time   9:19:30
  Original Simulation        6  15  2010 Yr    1 of   14 Time   9:19:31
  Original Simulation        6  16  2010 Yr    1 of   14 Time   9:19:32
  Original Simulation        6  17  2010 Yr    1 of   14 Time   9:19:33
  Original Simulation        6  18  2010 Yr    1 of   14 Time   9:19:34
  Original Simulation        6  19  2010 Yr    1 of   14 Time   9:19:35
  Original Simulation        6  20  2010 Yr    1 of   14 Time   9:19:36
  Original Simulation        6  21  2010 Yr    1 of   14 Time   9:19:37
  Original Simulation        6  22  2010 Yr    1 of   14 Time   9:19:38
  Original Simulation        6  23  2010 Yr    1 of   14 Time   9:19:39
  Original Simulation        6  24  2010 Yr    1 of   14 Time   9:19:40
  Original Simulation        6  25  2010 Yr    1 of   14 Time   9:19:41
  Original Simulation        6  26  2010 Yr    1 of   14 Time   9:19:41
  Original Simulation        6  27  2010 Yr    1 of   14 Time   9:19:42
  Original Simulation        6  28  2010 Yr    1 of   14 Time   9:19:43
  Original Simulation        6  29  2010 Yr    1 of   14 Time   9:19:44
  Original Simulation        6  30  2010 Yr    1 of   14 Time   9:19:45
  Original Simulation        7   1  2010 Yr    1 of   14 Time   9:19:46
  Original Simulation        7   2  2010 Yr    1 of   14 Time   9:19:47
  Original Simulation        7   3  2010 Yr    1 of   14 Time   9:19:48
  Original Simulation        7   4  2010 Yr    1 of   14 Time   9:19:49
  Original Simulation        7   5  2010 Yr    1 of   14 Time   9:19:50
  Original Simulation        7   6  2010 Yr    1 of   14 Time   9:19:51
  Original Simulation        7   7  2010 Yr    1 of   14 Time   9:19:52
  Original Simulation        7   8  2010 Yr    1 of   14 Time   9:19:53
  Original Simulation        7   9  2010 Yr    1 of   14 Time   9:19:54
  Original Simulation        7  10  2010 Yr    1 of   14 Time   9:19:55
  Original Simulation        7  11  2010 Yr    1 of   14 Time   9:19:56
  Original Simulation        7  12  2010 Yr    1 of   14 Time   9:19:57
  Original Simulation        7  13  2010 Yr    1 of   14 Time   9:19:58
  Original Simulation        7  14  2010 Yr    1 of   14 Time   9:19:59
  Original Simulation        7  15  2010 Yr    1 of   14 Time   9:20: 0
  Original Simulation        7  16  2010 Yr    1 of   14 Time   9:20: 1
  Original Simulation        7  17  2010 Yr    1 of   14 Time   9:20: 2
  Original Simulation        7  18  2010 Yr    1 of   14 Time   9:20: 3
  Original Simulation        7  19  2010 Yr    1 of   14 Time   9:20: 4
  Original Simulation        7  20  2010 Yr    1 of   14 Time   9:20: 4
  Original Simulation        7  21  2010 Yr    1 of   14 Time   9:20: 5
  Original Simulation        7  22  2010 Yr    1 of   14 Time   9:20: 6
  Original Simulation        7  23  2010 Yr    1 of   14 Time   9:20: 7
  Original Simulation        7  24  2010 Yr    1 of   14 Time   9:20: 8
  Original Simulation        7  25  2010 Yr    1 of   14 Time   9:20: 9
  Original Simulation        7  26  2010 Yr    1 of   14 Time   9:20:10
  Original Simulation        7  27  2010 Yr    1 of   14 Time   9:20:11
  Original Simulation        7  28  2010 Yr    1 of   14 Time   9:20:12
  Original Simulation        7  29  2010 Yr    1 of   14 Time   9:20:13
  Original Simulation        7  30  2010 Yr    1 of   14 Time   9:20:14
  Original Simulation        7  31  2010 Yr    1 of   14 Time   9:20:15
  Original Simulation        8   1  2010 Yr    1 of   14 Time   9:20:16
  Original Simulation        8   2  2010 Yr    1 of   14 Time   9:20:17
  Original Simulation        8   3  2010 Yr    1 of   14 Time   9:20:18
  Original Simulation        8   4  2010 Yr    1 of   14 Time   9:20:19
  Original Simulation        8   5  2010 Yr    1 of   14 Time   9:20:20
  Original Simulation        8   6  2010 Yr    1 of   14 Time   9:20:21
  Original Simulation        8   7  2010 Yr    1 of   14 Time   9:20:22
  Original Simulation        8   8  2010 Yr    1 of   14 Time   9:20:23
  Original Simulation        8   9  2010 Yr    1 of   14 Time   9:20:24
  Original Simulation        8  10  2010 Yr    1 of   14 Time   9:20:25
  Original Simulation        8  11  2010 Yr    1 of   14 Time   9:20:26
  Original Simulation        8  12  2010 Yr    1 of   14 Time   9:20:27
  Original Simulation        8  13  2010 Yr    1 of   14 Time   9:20:27
  Original Simulation        8  14  2010 Yr    1 of   14 Time   9:20:28
  Original Simulation        8  15  2010 Yr    1 of   14 Time   9:20:29
  Original Simulation        8  16  2010 Yr    1 of   14 Time   9:20:30
  Original Simulation        8  17  2010 Yr    1 of   14 Time   9:20:31
  Original Simulation        8  18  2010 Yr    1 of   14 Time   9:20:32
  Original Simulation        8  19  2010 Yr    1 of   14 Time   9:20:33
  Original Simulation        8  20  2010 Yr    1 of   14 Time   9:20:34
  Original Simulation        8  21  2010 Yr    1 of   14 Time   9:20:35
  Original Simulation        8  22  2010 Yr    1 of   14 Time   9:20:36
  Original Simulation        8  23  2010 Yr    1 of   14 Time   9:20:37
  Original Simulation        8  24  2010 Yr    1 of   14 Time   9:20:38
  Original Simulation        8  25  2010 Yr    1 of   14 Time   9:20:39
  Original Simulation        8  26  2010 Yr    1 of   14 Time   9:20:40
  Original Simulation        8  27  2010 Yr    1 of   14 Time   9:20:41
  Original Simulation        8  28  2010 Yr    1 of   14 Time   9:20:42
  Original Simulation        8  29  2010 Yr    1 of   14 Time   9:20:43
  Original Simulation        8  30  2010 Yr    1 of   14 Time   9:20:44
  Original Simulation        8  31  2010 Yr    1 of   14 Time   9:20:45
  Original Simulation        9   1  2010 Yr    1 of   14 Time   9:20:46
  Original Simulation        9   2  2010 Yr    1 of   14 Time   9:20:47
  Original Simulation        9   3  2010 Yr    1 of   14 Time   9:20:48
  Original Simulation        9   4  2010 Yr    1 of   14 Time   9:20:49
  Original Simulation        9   5  2010 Yr    1 of   14 Time   9:20:50
  Original Simulation        9   6  2010 Yr    1 of   14 Time   9:20:51
  Original Simulation        9   7  2010 Yr    1 of   14 Time   9:20:52
  Original Simulation        9   8  2010 Yr    1 of   14 Time   9:20:53
  Original Simulation        9   9  2010 Yr    1 of   14 Time   9:20:54
  Original Simulation        9  10  2010 Yr    1 of   14 Time   9:20:55
  Original Simulation        9  11  2010 Yr    1 of   14 Time   9:20:55
  Original Simulation        9  12  2010 Yr    1 of   14 Time   9:20:56
  Original Simulation        9  13  2010 Yr    1 of   14 Time   9:20:57
  Original Simulation        9  14  2010 Yr    1 of   14 Time   9:20:58
  Original Simulation        9  15  2010 Yr    1 of   14 Time   9:20:59
  Original Simulation        9  16  2010 Yr    1 of   14 Time   9:21: 0
  Original Simulation        9  17  2010 Yr    1 of   14 Time   9:21: 1
  Original Simulation        9  18  2010 Yr    1 of   14 Time   9:21: 2
  Original Simulation        9  19  2010 Yr    1 of   14 Time   9:21: 3
  Original Simulation        9  20  2010 Yr    1 of   14 Time   9:21: 4
  Original Simulation        9  21  2010 Yr    1 of   14 Time   9:21: 5
  Original Simulation        9  22  2010 Yr    1 of   14 Time   9:21: 6
  Original Simulation        9  23  2010 Yr    1 of   14 Time   9:21: 7
  Original Simulation        9  24  2010 Yr    1 of   14 Time   9:21: 8
  Original Simulation        9  25  2010 Yr    1 of   14 Time   9:21: 9
  Original Simulation        9  26  2010 Yr    1 of   14 Time   9:21:10
  Original Simulation        9  27  2010 Yr    1 of   14 Time   9:21:10
  Original Simulation        9  28  2010 Yr    1 of   14 Time   9:21:11
  Original Simulation        9  29  2010 Yr    1 of   14 Time   9:21:12
  Original Simulation        9  30  2010 Yr    1 of   14 Time   9:21:13
  Original Simulation       10   1  2010 Yr    1 of   14 Time   9:21:14
  Original Simulation       10   2  2010 Yr    1 of   14 Time   9:21:15
  Original Simulation       10   3  2010 Yr    1 of   14 Time   9:21:16
  Original Simulation       10   4  2010 Yr    1 of   14 Time   9:21:17
  Original Simulation       10   5  2010 Yr    1 of   14 Time   9:21:18
  Original Simulation       10   6  2010 Yr    1 of   14 Time   9:21:19
  Original Simulation       10   7  2010 Yr    1 of   14 Time   9:21:20
  Original Simulation       10   8  2010 Yr    1 of   14 Time   9:21:20
  Original Simulation       10   9  2010 Yr    1 of   14 Time   9:21:21
  Original Simulation       10  10  2010 Yr    1 of   14 Time   9:21:22
  Original Simulation       10  11  2010 Yr    1 of   14 Time   9:21:23
  Original Simulation       10  12  2010 Yr    1 of   14 Time   9:21:24
  Original Simulation       10  13  2010 Yr    1 of   14 Time   9:21:25
  Original Simulation       10  14  2010 Yr    1 of   14 Time   9:21:26
  Original Simulation       10  15  2010 Yr    1 of   14 Time   9:21:27
  Original Simulation       10  16  2010 Yr    1 of   14 Time   9:21:28
  Original Simulation       10  17  2010 Yr    1 of   14 Time   9:21:29
  Original Simulation       10  18  2010 Yr    1 of   14 Time   9:21:30
  Original Simulation       10  19  2010 Yr    1 of   14 Time   9:21:30
  Original Simulation       10  20  2010 Yr    1 of   14 Time   9:21:31
  Original Simulation       10  21  2010 Yr    1 of   14 Time   9:21:32
  Original Simulation       10  22  2010 Yr    1 of   14 Time   9:21:33
  Original Simulation       10  23  2010 Yr    1 of   14 Time   9:21:34
  Original Simulation       10  24  2010 Yr    1 of   14 Time   9:21:35
  Original Simulation       10  25  2010 Yr    1 of   14 Time   9:21:36
  Original Simulation       10  26  2010 Yr    1 of   14 Time   9:21:37
  Original Simulation       10  27  2010 Yr    1 of   14 Time   9:21:38
  Original Simulation       10  28  2010 Yr    1 of   14 Time   9:21:39
  Original Simulation       10  29  2010 Yr    1 of   14 Time   9:21:40
  Original Simulation       10  30  2010 Yr    1 of   14 Time   9:21:40
  Original Simulation       10  31  2010 Yr    1 of   14 Time   9:21:41
  Original Simulation       11   1  2010 Yr    1 of   14 Time   9:21:42
  Original Simulation       11   2  2010 Yr    1 of   14 Time   9:21:43
  Original Simulation       11   3  2010 Yr    1 of   14 Time   9:21:44
  Original Simulation       11   4  2010 Yr    1 of   14 Time   9:21:45
  Original Simulation       11   5  2010 Yr    1 of   14 Time   9:21:46
  Original Simulation       11   6  2010 Yr    1 of   14 Time   9:21:47
  Original Simulation       11   7  2010 Yr    1 of   14 Time   9:21:48
  Original Simulation       11   8  2010 Yr    1 of   14 Time   9:21:49
  Original Simulation       11   9  2010 Yr    1 of   14 Time   9:21:49
  Original Simulation       11  10  2010 Yr    1 of   14 Time   9:21:50
  Original Simulation       11  11  2010 Yr    1 of   14 Time   9:21:51
  Original Simulation       11  12  2010 Yr    1 of   14 Time   9:21:52
  Original Simulation       11  13  2010 Yr    1 of   14 Time   9:21:53
  Original Simulation       11  14  2010 Yr    1 of   14 Time   9:21:54
  Original Simulation       11  15  2010 Yr    1 of   14 Time   9:21:55
  Original Simulation       11  16  2010 Yr    1 of   14 Time   9:21:55
  Original Simulation       11  17  2010 Yr    1 of   14 Time   9:21:56
  Original Simulation       11  18  2010 Yr    1 of   14 Time   9:21:57
  Original Simulation       11  19  2010 Yr    1 of   14 Time   9:21:58
  Original Simulation       11  20  2010 Yr    1 of   14 Time   9:21:59
  Original Simulation       11  21  2010 Yr    1 of   14 Time   9:22: 0
  Original Simulation       11  22  2010 Yr    1 of   14 Time   9:22: 1
  Original Simulation       11  23  2010 Yr    1 of   14 Time   9:22: 2
  Original Simulation       11  24  2010 Yr    1 of   14 Time   9:22: 2
  Original Simulation       11  25  2010 Yr    1 of   14 Time   9:22: 3
  Original Simulation       11  26  2010 Yr    1 of   14 Time   9:22: 4
  Original Simulation       11  27  2010 Yr    1 of   14 Time   9:22: 5
  Original Simulation       11  28  2010 Yr    1 of   14 Time   9:22: 6
  Original Simulation       11  29  2010 Yr    1 of   14 Time   9:22: 7
  Original Simulation       11  30  2010 Yr    1 of   14 Time   9:22: 8
  Original Simulation       12   1  2010 Yr    1 of   14 Time   9:22: 8
  Original Simulation       12   2  2010 Yr    1 of   14 Time   9:22: 9
  Original Simulation       12   3  2010 Yr    1 of   14 Time   9:22:10
  Original Simulation       12   4  2010 Yr    1 of   14 Time   9:22:11
  Original Simulation       12   5  2010 Yr    1 of   14 Time   9:22:12
  Original Simulation       12   6  2010 Yr    1 of   14 Time   9:22:13
  Original Simulation       12   7  2010 Yr    1 of   14 Time   9:22:14
  Original Simulation       12   8  2010 Yr    1 of   14 Time   9:22:15
  Original Simulation       12   9  2010 Yr    1 of   14 Time   9:22:15
  Original Simulation       12  10  2010 Yr    1 of   14 Time   9:22:16
  Original Simulation       12  11  2010 Yr    1 of   14 Time   9:22:17
  Original Simulation       12  12  2010 Yr    1 of   14 Time   9:22:18
  Original Simulation       12  13  2010 Yr    1 of   14 Time   9:22:19
  Original Simulation       12  14  2010 Yr    1 of   14 Time   9:22:20
  Original Simulation       12  15  2010 Yr    1 of   14 Time   9:22:21
  Original Simulation       12  16  2010 Yr    1 of   14 Time   9:22:21
  Original Simulation       12  17  2010 Yr    1 of   14 Time   9:22:22
  Original Simulation       12  18  2010 Yr    1 of   14 Time   9:22:23
  Original Simulation       12  19  2010 Yr    1 of   14 Time   9:22:24
  Original Simulation       12  20  2010 Yr    1 of   14 Time   9:22:25
  Original Simulation       12  21  2010 Yr    1 of   14 Time   9:22:25
  Original Simulation       12  22  2010 Yr    1 of   14 Time   9:22:26
  Original Simulation       12  23  2010 Yr    1 of   14 Time   9:22:27
  Original Simulation       12  24  2010 Yr    1 of   14 Time   9:22:28
  Original Simulation       12  25  2010 Yr    1 of   14 Time   9:22:29
  Original Simulation       12  26  2010 Yr    1 of   14 Time   9:22:30
  Original Simulation       12  27  2010 Yr    1 of   14 Time   9:22:31
  Original Simulation       12  28  2010 Yr    1 of   14 Time   9:22:31
  Original Simulation       12  29  2010 Yr    1 of   14 Time   9:22:32
  Original Simulation       12  30  2010 Yr    1 of   14 Time   9:22:33
  Original Simulation       12  31  2010 Yr    1 of   14 Time   9:22:34
  Original Simulation        1   1  2011 Yr    2 of   14 Time   9:22:35
  Original Simulation        1   2  2011 Yr    2 of   14 Time   9:22:35
  Original Simulation        1   3  2011 Yr    2 of   14 Time   9:22:36
  Original Simulation        1   4  2011 Yr    2 of   14 Time   9:22:37
  Original Simulation        1   5  2011 Yr    2 of   14 Time   9:22:38
  Original Simulation        1   6  2011 Yr    2 of   14 Time   9:22:39
  Original Simulation        1   7  2011 Yr    2 of   14 Time   9:22:39
  Original Simulation        1   8  2011 Yr    2 of   14 Time   9:22:40
  Original Simulation        1   9  2011 Yr    2 of   14 Time   9:22:41
  Original Simulation        1  10  2011 Yr    2 of   14 Time   9:22:42
  Original Simulation        1  11  2011 Yr    2 of   14 Time   9:22:43
  Original Simulation        1  12  2011 Yr    2 of   14 Time   9:22:43
  Original Simulation        1  13  2011 Yr    2 of   14 Time   9:22:44
  Original Simulation        1  14  2011 Yr    2 of   14 Time   9:22:45
  Original Simulation        1  15  2011 Yr    2 of   14 Time   9:22:46
  Original Simulation        1  16  2011 Yr    2 of   14 Time   9:22:47
  Original Simulation        1  17  2011 Yr    2 of   14 Time   9:22:47
  Original Simulation        1  18  2011 Yr    2 of   14 Time   9:22:48
  Original Simulation        1  19  2011 Yr    2 of   14 Time   9:22:49
  Original Simulation        1  20  2011 Yr    2 of   14 Time   9:22:50
  Original Simulation        1  21  2011 Yr    2 of   14 Time   9:22:51
  Original Simulation        1  22  2011 Yr    2 of   14 Time   9:22:51
  Original Simulation        1  23  2011 Yr    2 of   14 Time   9:22:52
  Original Simulation        1  24  2011 Yr    2 of   14 Time   9:22:53
  Original Simulation        1  25  2011 Yr    2 of   14 Time   9:22:54
  Original Simulation        1  26  2011 Yr    2 of   14 Time   9:22:55
  Original Simulation        1  27  2011 Yr    2 of   14 Time   9:22:55
  Original Simulation        1  28  2011 Yr    2 of   14 Time   9:22:56
  Original Simulation        1  29  2011 Yr    2 of   14 Time   9:22:57
  Original Simulation        1  30  2011 Yr    2 of   14 Time   9:22:58
  Original Simulation        1  31  2011 Yr    2 of   14 Time   9:22:59
  Original Simulation        2   1  2011 Yr    2 of   14 Time   9:22:59
  Original Simulation        2   2  2011 Yr    2 of   14 Time   9:23: 0
  Original Simulation        2   3  2011 Yr    2 of   14 Time   9:23: 1
  Original Simulation        2   4  2011 Yr    2 of   14 Time   9:23: 2
  Original Simulation        2   5  2011 Yr    2 of   14 Time   9:23: 2
  Original Simulation        2   6  2011 Yr    2 of   14 Time   9:23: 3
  Original Simulation        2   7  2011 Yr    2 of   14 Time   9:23: 4
  Original Simulation        2   8  2011 Yr    2 of   14 Time   9:23: 5
  Original Simulation        2   9  2011 Yr    2 of   14 Time   9:23: 6
  Original Simulation        2  10  2011 Yr    2 of   14 Time   9:23: 7
  Original Simulation        2  11  2011 Yr    2 of   14 Time   9:23: 8
  Original Simulation        2  12  2011 Yr    2 of   14 Time   9:23: 8
  Original Simulation        2  13  2011 Yr    2 of   14 Time   9:23: 9
  Original Simulation        2  14  2011 Yr    2 of   14 Time   9:23:10
  Original Simulation        2  15  2011 Yr    2 of   14 Time   9:23:11
  Original Simulation        2  16  2011 Yr    2 of   14 Time   9:23:12
  Original Simulation        2  17  2011 Yr    2 of   14 Time   9:23:13
  Original Simulation        2  18  2011 Yr    2 of   14 Time   9:23:13
  Original Simulation        2  19  2011 Yr    2 of   14 Time   9:23:14
  Original Simulation        2  20  2011 Yr    2 of   14 Time   9:23:15
  Original Simulation        2  21  2011 Yr    2 of   14 Time   9:23:16
  Original Simulation        2  22  2011 Yr    2 of   14 Time   9:23:17
  Original Simulation        2  23  2011 Yr    2 of   14 Time   9:23:18
  Original Simulation        2  24  2011 Yr    2 of   14 Time   9:23:19
  Original Simulation        2  25  2011 Yr    2 of   14 Time   9:23:19
  Original Simulation        2  26  2011 Yr    2 of   14 Time   9:23:20
  Original Simulation        2  27  2011 Yr    2 of   14 Time   9:23:21
  Original Simulation        2  28  2011 Yr    2 of   14 Time   9:23:22
  Original Simulation        3   1  2011 Yr    2 of   14 Time   9:23:23
  Original Simulation        3   2  2011 Yr    2 of   14 Time   9:23:24
  Original Simulation        3   3  2011 Yr    2 of   14 Time   9:23:25
  Original Simulation        3   4  2011 Yr    2 of   14 Time   9:23:26
  Original Simulation        3   5  2011 Yr    2 of   14 Time   9:23:27
  Original Simulation        3   6  2011 Yr    2 of   14 Time   9:23:27
  Original Simulation        3   7  2011 Yr    2 of   14 Time   9:23:28
  Original Simulation        3   8  2011 Yr    2 of   14 Time   9:23:29
  Original Simulation        3   9  2011 Yr    2 of   14 Time   9:23:30
  Original Simulation        3  10  2011 Yr    2 of   14 Time   9:23:31
  Original Simulation        3  11  2011 Yr    2 of   14 Time   9:23:32
  Original Simulation        3  12  2011 Yr    2 of   14 Time   9:23:33
  Original Simulation        3  13  2011 Yr    2 of   14 Time   9:23:34
  Original Simulation        3  14  2011 Yr    2 of   14 Time   9:23:34
  Original Simulation        3  15  2011 Yr    2 of   14 Time   9:23:35
  Original Simulation        3  16  2011 Yr    2 of   14 Time   9:23:36
  Original Simulation        3  17  2011 Yr    2 of   14 Time   9:23:37
  Original Simulation        3  18  2011 Yr    2 of   14 Time   9:23:38
  Original Simulation        3  19  2011 Yr    2 of   14 Time   9:23:39
  Original Simulation        3  20  2011 Yr    2 of   14 Time   9:23:40
  Original Simulation        3  21  2011 Yr    2 of   14 Time   9:23:41
  Original Simulation        3  22  2011 Yr    2 of   14 Time   9:23:42
  Original Simulation        3  23  2011 Yr    2 of   14 Time   9:23:42
  Original Simulation        3  24  2011 Yr    2 of   14 Time   9:23:43
  Original Simulation        3  25  2011 Yr    2 of   14 Time   9:23:44
  Original Simulation        3  26  2011 Yr    2 of   14 Time   9:23:45
  Original Simulation        3  27  2011 Yr    2 of   14 Time   9:23:46
  Original Simulation        3  28  2011 Yr    2 of   14 Time   9:23:47
  Original Simulation        3  29  2011 Yr    2 of   14 Time   9:23:48
  Original Simulation        3  30  2011 Yr    2 of   14 Time   9:23:49
  Original Simulation        3  31  2011 Yr    2 of   14 Time   9:23:49
  Original Simulation        4   1  2011 Yr    2 of   14 Time   9:23:50
  Original Simulation        4   2  2011 Yr    2 of   14 Time   9:23:51
  Original Simulation        4   3  2011 Yr    2 of   14 Time   9:23:52
  Original Simulation        4   4  2011 Yr    2 of   14 Time   9:23:53
  Original Simulation        4   5  2011 Yr    2 of   14 Time   9:23:54
  Original Simulation        4   6  2011 Yr    2 of   14 Time   9:23:55
  Original Simulation        4   7  2011 Yr    2 of   14 Time   9:23:56
  Original Simulation        4   8  2011 Yr    2 of   14 Time   9:23:57
  Original Simulation        4   9  2011 Yr    2 of   14 Time   9:23:57
  Original Simulation        4  10  2011 Yr    2 of   14 Time   9:23:58
  Original Simulation        4  11  2011 Yr    2 of   14 Time   9:23:59
  Original Simulation        4  12  2011 Yr    2 of   14 Time   9:24: 0
  Original Simulation        4  13  2011 Yr    2 of   14 Time   9:24: 1
  Original Simulation        4  14  2011 Yr    2 of   14 Time   9:24: 2
  Original Simulation        4  15  2011 Yr    2 of   14 Time   9:24: 3
  Original Simulation        4  16  2011 Yr    2 of   14 Time   9:24: 4
  Original Simulation        4  17  2011 Yr    2 of   14 Time   9:24: 5
  Original Simulation        4  18  2011 Yr    2 of   14 Time   9:24: 5
  Original Simulation        4  19  2011 Yr    2 of   14 Time   9:24: 6
  Original Simulation        4  20  2011 Yr    2 of   14 Time   9:24: 7
  Original Simulation        4  21  2011 Yr    2 of   14 Time   9:24: 8
  Original Simulation        4  22  2011 Yr    2 of   14 Time   9:24: 9
  Original Simulation        4  23  2011 Yr    2 of   14 Time   9:24:10
  Original Simulation        4  24  2011 Yr    2 of   14 Time   9:24:11
  Original Simulation        4  25  2011 Yr    2 of   14 Time   9:24:12
  Original Simulation        4  26  2011 Yr    2 of   14 Time   9:24:13
  Original Simulation        4  27  2011 Yr    2 of   14 Time   9:24:13
  Original Simulation        4  28  2011 Yr    2 of   14 Time   9:24:14
  Original Simulation        4  29  2011 Yr    2 of   14 Time   9:24:15
  Original Simulation        4  30  2011 Yr    2 of   14 Time   9:24:16
  Original Simulation        5   1  2011 Yr    2 of   14 Time   9:24:17
  Original Simulation        5   2  2011 Yr    2 of   14 Time   9:24:18
  Original Simulation        5   3  2011 Yr    2 of   14 Time   9:24:19
  Original Simulation        5   4  2011 Yr    2 of   14 Time   9:24:20
  Original Simulation        5   5  2011 Yr    2 of   14 Time   9:24:21
  Original Simulation        5   6  2011 Yr    2 of   14 Time   9:24:21
  Original Simulation        5   7  2011 Yr    2 of   14 Time   9:24:22
  Original Simulation        5   8  2011 Yr    2 of   14 Time   9:24:23
  Original Simulation        5   9  2011 Yr    2 of   14 Time   9:24:24
  Original Simulation        5  10  2011 Yr    2 of   14 Time   9:24:25
  Original Simulation        5  11  2011 Yr    2 of   14 Time   9:24:26
  Original Simulation        5  12  2011 Yr    2 of   14 Time   9:24:27
  Original Simulation        5  13  2011 Yr    2 of   14 Time   9:24:28
  Original Simulation        5  14  2011 Yr    2 of   14 Time   9:24:29
  Original Simulation        5  15  2011 Yr    2 of   14 Time   9:24:30
  Original Simulation        5  16  2011 Yr    2 of   14 Time   9:24:31
  Original Simulation        5  17  2011 Yr    2 of   14 Time   9:24:32
  Original Simulation        5  18  2011 Yr    2 of   14 Time   9:24:33
  Original Simulation        5  19  2011 Yr    2 of   14 Time   9:24:34
  Original Simulation        5  20  2011 Yr    2 of   14 Time   9:24:35
  Original Simulation        5  21  2011 Yr    2 of   14 Time   9:24:35
  Original Simulation        5  22  2011 Yr    2 of   14 Time   9:24:36
  Original Simulation        5  23  2011 Yr    2 of   14 Time   9:24:37
  Original Simulation        5  24  2011 Yr    2 of   14 Time   9:24:38
  Original Simulation        5  25  2011 Yr    2 of   14 Time   9:24:39
  Original Simulation        5  26  2011 Yr    2 of   14 Time   9:24:40
  Original Simulation        5  27  2011 Yr    2 of   14 Time   9:24:41
  Original Simulation        5  28  2011 Yr    2 of   14 Time   9:24:42
  Original Simulation        5  29  2011 Yr    2 of   14 Time   9:24:43
  Original Simulation        5  30  2011 Yr    2 of   14 Time   9:24:44
  Original Simulation        5  31  2011 Yr    2 of   14 Time   9:24:45
  Original Simulation        6   1  2011 Yr    2 of   14 Time   9:24:46
  Original Simulation        6   2  2011 Yr    2 of   14 Time   9:24:47
  Original Simulation        6   3  2011 Yr    2 of   14 Time   9:24:48
  Original Simulation        6   4  2011 Yr    2 of   14 Time   9:24:49
  Original Simulation        6   5  2011 Yr    2 of   14 Time   9:24:50
  Original Simulation        6   6  2011 Yr    2 of   14 Time   9:24:51
  Original Simulation        6   7  2011 Yr    2 of   14 Time   9:24:52
  Original Simulation        6   8  2011 Yr    2 of   14 Time   9:24:53
  Original Simulation        6   9  2011 Yr    2 of   14 Time   9:24:54
  Original Simulation        6  10  2011 Yr    2 of   14 Time   9:24:55
  Original Simulation        6  11  2011 Yr    2 of   14 Time   9:24:55
  Original Simulation        6  12  2011 Yr    2 of   14 Time   9:24:56
  Original Simulation        6  13  2011 Yr    2 of   14 Time   9:24:57
  Original Simulation        6  14  2011 Yr    2 of   14 Time   9:24:58
  Original Simulation        6  15  2011 Yr    2 of   14 Time   9:24:59
  Original Simulation        6  16  2011 Yr    2 of   14 Time   9:25: 0
  Original Simulation        6  17  2011 Yr    2 of   14 Time   9:25: 1
  Original Simulation        6  18  2011 Yr    2 of   14 Time   9:25: 2
  Original Simulation        6  19  2011 Yr    2 of   14 Time   9:25: 3
  Original Simulation        6  20  2011 Yr    2 of   14 Time   9:25: 4
  Original Simulation        6  21  2011 Yr    2 of   14 Time   9:25: 5
  Original Simulation        6  22  2011 Yr    2 of   14 Time   9:25: 6
  Original Simulation        6  23  2011 Yr    2 of   14 Time   9:25: 7
  Original Simulation        6  24  2011 Yr    2 of   14 Time   9:25: 8
  Original Simulation        6  25  2011 Yr    2 of   14 Time   9:25: 9
  Original Simulation        6  26  2011 Yr    2 of   14 Time   9:25:10
  Original Simulation        6  27  2011 Yr    2 of   14 Time   9:25:11
  Original Simulation        6  28  2011 Yr    2 of   14 Time   9:25:12
  Original Simulation        6  29  2011 Yr    2 of   14 Time   9:25:13
  Original Simulation        6  30  2011 Yr    2 of   14 Time   9:25:14
  Original Simulation        7   1  2011 Yr    2 of   14 Time   9:25:15
  Original Simulation        7   2  2011 Yr    2 of   14 Time   9:25:15
  Original Simulation        7   3  2011 Yr    2 of   14 Time   9:25:16
  Original Simulation        7   4  2011 Yr    2 of   14 Time   9:25:17
  Original Simulation        7   5  2011 Yr    2 of   14 Time   9:25:18
  Original Simulation        7   6  2011 Yr    2 of   14 Time   9:25:19
  Original Simulation        7   7  2011 Yr    2 of   14 Time   9:25:20
  Original Simulation        7   8  2011 Yr    2 of   14 Time   9:25:21
  Original Simulation        7   9  2011 Yr    2 of   14 Time   9:25:22
  Original Simulation        7  10  2011 Yr    2 of   14 Time   9:25:23
  Original Simulation        7  11  2011 Yr    2 of   14 Time   9:25:24
  Original Simulation        7  12  2011 Yr    2 of   14 Time   9:25:25
  Original Simulation        7  13  2011 Yr    2 of   14 Time   9:25:26
  Original Simulation        7  14  2011 Yr    2 of   14 Time   9:25:27
  Original Simulation        7  15  2011 Yr    2 of   14 Time   9:25:28
  Original Simulation        7  16  2011 Yr    2 of   14 Time   9:25:29
  Original Simulation        7  17  2011 Yr    2 of   14 Time   9:25:30
  Original Simulation        7  18  2011 Yr    2 of   14 Time   9:25:31
  Original Simulation        7  19  2011 Yr    2 of   14 Time   9:25:32
  Original Simulation        7  20  2011 Yr    2 of   14 Time   9:25:33
  Original Simulation        7  21  2011 Yr    2 of   14 Time   9:25:34
  Original Simulation        7  22  2011 Yr    2 of   14 Time   9:25:35
  Original Simulation        7  23  2011 Yr    2 of   14 Time   9:25:36
  Original Simulation        7  24  2011 Yr    2 of   14 Time   9:25:37
  Original Simulation        7  25  2011 Yr    2 of   14 Time   9:25:38
  Original Simulation        7  26  2011 Yr    2 of   14 Time   9:25:39
  Original Simulation        7  27  2011 Yr    2 of   14 Time   9:25:39
  Original Simulation        7  28  2011 Yr    2 of   14 Time   9:25:40
  Original Simulation        7  29  2011 Yr    2 of   14 Time   9:25:41
  Original Simulation        7  30  2011 Yr    2 of   14 Time   9:25:42
  Original Simulation        7  31  2011 Yr    2 of   14 Time   9:25:43
  Original Simulation        8   1  2011 Yr    2 of   14 Time   9:25:44
  Original Simulation        8   2  2011 Yr    2 of   14 Time   9:25:45
  Original Simulation        8   3  2011 Yr    2 of   14 Time   9:25:46
  Original Simulation        8   4  2011 Yr    2 of   14 Time   9:25:47
  Original Simulation        8   5  2011 Yr    2 of   14 Time   9:25:48
  Original Simulation        8   6  2011 Yr    2 of   14 Time   9:25:49
  Original Simulation        8   7  2011 Yr    2 of   14 Time   9:25:50
  Original Simulation        8   8  2011 Yr    2 of   14 Time   9:25:51
  Original Simulation        8   9  2011 Yr    2 of   14 Time   9:25:52
  Original Simulation        8  10  2011 Yr    2 of   14 Time   9:25:53
  Original Simulation        8  11  2011 Yr    2 of   14 Time   9:25:54
  Original Simulation        8  12  2011 Yr    2 of   14 Time   9:25:55
  Original Simulation        8  13  2011 Yr    2 of   14 Time   9:25:56
  Original Simulation        8  14  2011 Yr    2 of   14 Time   9:25:57
  Original Simulation        8  15  2011 Yr    2 of   14 Time   9:25:58
  Original Simulation        8  16  2011 Yr    2 of   14 Time   9:25:59
  Original Simulation        8  17  2011 Yr    2 of   14 Time   9:26: 0
  Original Simulation        8  18  2011 Yr    2 of   14 Time   9:26: 1
  Original Simulation        8  19  2011 Yr    2 of   14 Time   9:26: 2
  Original Simulation        8  20  2011 Yr    2 of   14 Time   9:26: 3
  Original Simulation        8  21  2011 Yr    2 of   14 Time   9:26: 4
  Original Simulation        8  22  2011 Yr    2 of   14 Time   9:26: 5
  Original Simulation        8  23  2011 Yr    2 of   14 Time   9:26: 6
  Original Simulation        8  24  2011 Yr    2 of   14 Time   9:26: 7
  Original Simulation        8  25  2011 Yr    2 of   14 Time   9:26: 8
  Original Simulation        8  26  2011 Yr    2 of   14 Time   9:26: 9
  Original Simulation        8  27  2011 Yr    2 of   14 Time   9:26: 9
  Original Simulation        8  28  2011 Yr    2 of   14 Time   9:26:10
  Original Simulation        8  29  2011 Yr    2 of   14 Time   9:26:11
  Original Simulation        8  30  2011 Yr    2 of   14 Time   9:26:12
  Original Simulation        8  31  2011 Yr    2 of   14 Time   9:26:13
  Original Simulation        9   1  2011 Yr    2 of   14 Time   9:26:14
  Original Simulation        9   2  2011 Yr    2 of   14 Time   9:26:15
  Original Simulation        9   3  2011 Yr    2 of   14 Time   9:26:16
  Original Simulation        9   4  2011 Yr    2 of   14 Time   9:26:17
  Original Simulation        9   5  2011 Yr    2 of   14 Time   9:26:18
  Original Simulation        9   6  2011 Yr    2 of   14 Time   9:26:19
  Original Simulation        9   7  2011 Yr    2 of   14 Time   9:26:20
  Original Simulation        9   8  2011 Yr    2 of   14 Time   9:26:21
  Original Simulation        9   9  2011 Yr    2 of   14 Time   9:26:22
  Original Simulation        9  10  2011 Yr    2 of   14 Time   9:26:23
  Original Simulation        9  11  2011 Yr    2 of   14 Time   9:26:24
  Original Simulation        9  12  2011 Yr    2 of   14 Time   9:26:25
  Original Simulation        9  13  2011 Yr    2 of   14 Time   9:26:26
  Original Simulation        9  14  2011 Yr    2 of   14 Time   9:26:27
  Original Simulation        9  15  2011 Yr    2 of   14 Time   9:26:28
  Original Simulation        9  16  2011 Yr    2 of   14 Time   9:26:29
  Original Simulation        9  17  2011 Yr    2 of   14 Time   9:26:30
  Original Simulation        9  18  2011 Yr    2 of   14 Time   9:26:30
  Original Simulation        9  19  2011 Yr    2 of   14 Time   9:26:31
  Original Simulation        9  20  2011 Yr    2 of   14 Time   9:26:32
  Original Simulation        9  21  2011 Yr    2 of   14 Time   9:26:33
  Original Simulation        9  22  2011 Yr    2 of   14 Time   9:26:34
  Original Simulation        9  23  2011 Yr    2 of   14 Time   9:26:35
  Original Simulation        9  24  2011 Yr    2 of   14 Time   9:26:36
  Original Simulation        9  25  2011 Yr    2 of   14 Time   9:26:37
  Original Simulation        9  26  2011 Yr    2 of   14 Time   9:26:38
  Original Simulation        9  27  2011 Yr    2 of   14 Time   9:26:39
  Original Simulation        9  28  2011 Yr    2 of   14 Time   9:26:40
  Original Simulation        9  29  2011 Yr    2 of   14 Time   9:26:41
  Original Simulation        9  30  2011 Yr    2 of   14 Time   9:26:42
  Original Simulation       10   1  2011 Yr    2 of   14 Time   9:26:43
  Original Simulation       10   2  2011 Yr    2 of   14 Time   9:26:44
  Original Simulation       10   3  2011 Yr    2 of   14 Time   9:26:44
  Original Simulation       10   4  2011 Yr    2 of   14 Time   9:26:45
  Original Simulation       10   5  2011 Yr    2 of   14 Time   9:26:46
  Original Simulation       10   6  2011 Yr    2 of   14 Time   9:26:47
  Original Simulation       10   7  2011 Yr    2 of   14 Time   9:26:48
  Original Simulation       10   8  2011 Yr    2 of   14 Time   9:26:49
  Original Simulation       10   9  2011 Yr    2 of   14 Time   9:26:50
  Original Simulation       10  10  2011 Yr    2 of   14 Time   9:26:51
  Original Simulation       10  11  2011 Yr    2 of   14 Time   9:26:52
  Original Simulation       10  12  2011 Yr    2 of   14 Time   9:26:53
  Original Simulation       10  13  2011 Yr    2 of   14 Time   9:26:54
  Original Simulation       10  14  2011 Yr    2 of   14 Time   9:26:54
  Original Simulation       10  15  2011 Yr    2 of   14 Time   9:26:55
  Original Simulation       10  16  2011 Yr    2 of   14 Time   9:26:56
  Original Simulation       10  17  2011 Yr    2 of   14 Time   9:26:57
  Original Simulation       10  18  2011 Yr    2 of   14 Time   9:26:58
  Original Simulation       10  19  2011 Yr    2 of   14 Time   9:26:59
  Original Simulation       10  20  2011 Yr    2 of   14 Time   9:27: 0
  Original Simulation       10  21  2011 Yr    2 of   14 Time   9:27: 1
  Original Simulation       10  22  2011 Yr    2 of   14 Time   9:27: 2
  Original Simulation       10  23  2011 Yr    2 of   14 Time   9:27: 3
  Original Simulation       10  24  2011 Yr    2 of   14 Time   9:27: 4
  Original Simulation       10  25  2011 Yr    2 of   14 Time   9:27: 4
  Original Simulation       10  26  2011 Yr    2 of   14 Time   9:27: 5
  Original Simulation       10  27  2011 Yr    2 of   14 Time   9:27: 6
  Original Simulation       10  28  2011 Yr    2 of   14 Time   9:27: 7
  Original Simulation       10  29  2011 Yr    2 of   14 Time   9:27: 8
  Original Simulation       10  30  2011 Yr    2 of   14 Time   9:27: 9
  Original Simulation       10  31  2011 Yr    2 of   14 Time   9:27:10
  Original Simulation       11   1  2011 Yr    2 of   14 Time   9:27:11
  Original Simulation       11   2  2011 Yr    2 of   14 Time   9:27:12
  Original Simulation       11   3  2011 Yr    2 of   14 Time   9:27:13
  Original Simulation       11   4  2011 Yr    2 of   14 Time   9:27:13
  Original Simulation       11   5  2011 Yr    2 of   14 Time   9:27:14
  Original Simulation       11   6  2011 Yr    2 of   14 Time   9:27:15
  Original Simulation       11   7  2011 Yr    2 of   14 Time   9:27:16
  Original Simulation       11   8  2011 Yr    2 of   14 Time   9:27:17
  Original Simulation       11   9  2011 Yr    2 of   14 Time   9:27:18
  Original Simulation       11  10  2011 Yr    2 of   14 Time   9:27:19
  Original Simulation       11  11  2011 Yr    2 of   14 Time   9:27:20
  Original Simulation       11  12  2011 Yr    2 of   14 Time   9:27:21
  Original Simulation       11  13  2011 Yr    2 of   14 Time   9:27:21
  Original Simulation       11  14  2011 Yr    2 of   14 Time   9:27:22
  Original Simulation       11  15  2011 Yr    2 of   14 Time   9:27:23
  Original Simulation       11  16  2011 Yr    2 of   14 Time   9:27:24
  Original Simulation       11  17  2011 Yr    2 of   14 Time   9:27:25
  Original Simulation       11  18  2011 Yr    2 of   14 Time   9:27:26
  Original Simulation       11  19  2011 Yr    2 of   14 Time   9:27:27
  Original Simulation       11  20  2011 Yr    2 of   14 Time   9:27:28
  Original Simulation       11  21  2011 Yr    2 of   14 Time   9:27:28
  Original Simulation       11  22  2011 Yr    2 of   14 Time   9:27:29
  Original Simulation       11  23  2011 Yr    2 of   14 Time   9:27:30
  Original Simulation       11  24  2011 Yr    2 of   14 Time   9:27:31
  Original Simulation       11  25  2011 Yr    2 of   14 Time   9:27:32
  Original Simulation       11  26  2011 Yr    2 of   14 Time   9:27:33
  Original Simulation       11  27  2011 Yr    2 of   14 Time   9:27:34
  Original Simulation       11  28  2011 Yr    2 of   14 Time   9:27:34
  Original Simulation       11  29  2011 Yr    2 of   14 Time   9:27:35
  Original Simulation       11  30  2011 Yr    2 of   14 Time   9:27:36
  Original Simulation       12   1  2011 Yr    2 of   14 Time   9:27:37
  Original Simulation       12   2  2011 Yr    2 of   14 Time   9:27:38
  Original Simulation       12   3  2011 Yr    2 of   14 Time   9:27:39
  Original Simulation       12   4  2011 Yr    2 of   14 Time   9:27:40
  Original Simulation       12   5  2011 Yr    2 of   14 Time   9:27:41
  Original Simulation       12   6  2011 Yr    2 of   14 Time   9:27:41
  Original Simulation       12   7  2011 Yr    2 of   14 Time   9:27:42
  Original Simulation       12   8  2011 Yr    2 of   14 Time   9:27:43
  Original Simulation       12   9  2011 Yr    2 of   14 Time   9:27:44
  Original Simulation       12  10  2011 Yr    2 of   14 Time   9:27:45
  Original Simulation       12  11  2011 Yr    2 of   14 Time   9:27:46
  Original Simulation       12  12  2011 Yr    2 of   14 Time   9:27:47
  Original Simulation       12  13  2011 Yr    2 of   14 Time   9:27:48
  Original Simulation       12  14  2011 Yr    2 of   14 Time   9:27:48
  Original Simulation       12  15  2011 Yr    2 of   14 Time   9:27:49
  Original Simulation       12  16  2011 Yr    2 of   14 Time   9:27:50
  Original Simulation       12  17  2011 Yr    2 of   14 Time   9:27:51
  Original Simulation       12  18  2011 Yr    2 of   14 Time   9:27:52
  Original Simulation       12  19  2011 Yr    2 of   14 Time   9:27:53
  Original Simulation       12  20  2011 Yr    2 of   14 Time   9:27:54
  Original Simulation       12  21  2011 Yr    2 of   14 Time   9:27:54
  Original Simulation       12  22  2011 Yr    2 of   14 Time   9:27:55
  Original Simulation       12  23  2011 Yr    2 of   14 Time   9:27:56
  Original Simulation       12  24  2011 Yr    2 of   14 Time   9:27:57
  Original Simulation       12  25  2011 Yr    2 of   14 Time   9:27:58
  Original Simulation       12  26  2011 Yr    2 of   14 Time   9:27:59
  Original Simulation       12  27  2011 Yr    2 of   14 Time   9:27:59
  Original Simulation       12  28  2011 Yr    2 of   14 Time   9:28: 0
  Original Simulation       12  29  2011 Yr    2 of   14 Time   9:28: 1
  Original Simulation       12  30  2011 Yr    2 of   14 Time   9:28: 2
  Original Simulation       12  31  2011 Yr    2 of   14 Time   9:28: 3
  Original Simulation        1   1  2012 Yr    3 of   14 Time   9:28: 4
  Original Simulation        1   2  2012 Yr    3 of   14 Time   9:28: 4
  Original Simulation        1   3  2012 Yr    3 of   14 Time   9:28: 5
  Original Simulation        1   4  2012 Yr    3 of   14 Time   9:28: 6
  Original Simulation        1   5  2012 Yr    3 of   14 Time   9:28: 7
  Original Simulation        1   6  2012 Yr    3 of   14 Time   9:28: 8
  Original Simulation        1   7  2012 Yr    3 of   14 Time   9:28: 8
  Original Simulation        1   8  2012 Yr    3 of   14 Time   9:28: 9
  Original Simulation        1   9  2012 Yr    3 of   14 Time   9:28:10
  Original Simulation        1  10  2012 Yr    3 of   14 Time   9:28:11
  Original Simulation        1  11  2012 Yr    3 of   14 Time   9:28:12
  Original Simulation        1  12  2012 Yr    3 of   14 Time   9:28:12
  Original Simulation        1  13  2012 Yr    3 of   14 Time   9:28:13
  Original Simulation        1  14  2012 Yr    3 of   14 Time   9:28:14
  Original Simulation        1  15  2012 Yr    3 of   14 Time   9:28:15
  Original Simulation        1  16  2012 Yr    3 of   14 Time   9:28:16
  Original Simulation        1  17  2012 Yr    3 of   14 Time   9:28:16
  Original Simulation        1  18  2012 Yr    3 of   14 Time   9:28:17
  Original Simulation        1  19  2012 Yr    3 of   14 Time   9:28:18
  Original Simulation        1  20  2012 Yr    3 of   14 Time   9:28:19
  Original Simulation        1  21  2012 Yr    3 of   14 Time   9:28:20
  Original Simulation        1  22  2012 Yr    3 of   14 Time   9:28:20
  Original Simulation        1  23  2012 Yr    3 of   14 Time   9:28:21
  Original Simulation        1  24  2012 Yr    3 of   14 Time   9:28:22
  Original Simulation        1  25  2012 Yr    3 of   14 Time   9:28:23
  Original Simulation        1  26  2012 Yr    3 of   14 Time   9:28:24
  Original Simulation        1  27  2012 Yr    3 of   14 Time   9:28:24
  Original Simulation        1  28  2012 Yr    3 of   14 Time   9:28:25
  Original Simulation        1  29  2012 Yr    3 of   14 Time   9:28:26
  Original Simulation        1  30  2012 Yr    3 of   14 Time   9:28:27
  Original Simulation        1  31  2012 Yr    3 of   14 Time   9:28:28
  Original Simulation        2   1  2012 Yr    3 of   14 Time   9:28:28
  Original Simulation        2   2  2012 Yr    3 of   14 Time   9:28:29
  Original Simulation        2   3  2012 Yr    3 of   14 Time   9:28:30
  Original Simulation        2   4  2012 Yr    3 of   14 Time   9:28:31
  Original Simulation        2   5  2012 Yr    3 of   14 Time   9:28:32
  Original Simulation        2   6  2012 Yr    3 of   14 Time   9:28:33
  Original Simulation        2   7  2012 Yr    3 of   14 Time   9:28:33
  Original Simulation        2   8  2012 Yr    3 of   14 Time   9:28:34
  Original Simulation        2   9  2012 Yr    3 of   14 Time   9:28:35
  Original Simulation        2  10  2012 Yr    3 of   14 Time   9:28:36
  Original Simulation        2  11  2012 Yr    3 of   14 Time   9:28:37
  Original Simulation        2  12  2012 Yr    3 of   14 Time   9:28:38
  Original Simulation        2  13  2012 Yr    3 of   14 Time   9:28:38
  Original Simulation        2  14  2012 Yr    3 of   14 Time   9:28:39
  Original Simulation        2  15  2012 Yr    3 of   14 Time   9:28:40
  Original Simulation        2  16  2012 Yr    3 of   14 Time   9:28:41
  Original Simulation        2  17  2012 Yr    3 of   14 Time   9:28:42
  Original Simulation        2  18  2012 Yr    3 of   14 Time   9:28:43
  Original Simulation        2  19  2012 Yr    3 of   14 Time   9:28:43
  Original Simulation        2  20  2012 Yr    3 of   14 Time   9:28:44
  Original Simulation        2  21  2012 Yr    3 of   14 Time   9:28:45
  Original Simulation        2  22  2012 Yr    3 of   14 Time   9:28:46
  Original Simulation        2  23  2012 Yr    3 of   14 Time   9:28:47
  Original Simulation        2  24  2012 Yr    3 of   14 Time   9:28:48
  Original Simulation        2  25  2012 Yr    3 of   14 Time   9:28:48
  Original Simulation        2  26  2012 Yr    3 of   14 Time   9:28:49
  Original Simulation        2  27  2012 Yr    3 of   14 Time   9:28:50
  Original Simulation        2  28  2012 Yr    3 of   14 Time   9:28:51
  Original Simulation        2  29  2012 Yr    3 of   14 Time   9:28:52
  Original Simulation        3   1  2012 Yr    3 of   14 Time   9:28:53
  Original Simulation        3   2  2012 Yr    3 of   14 Time   9:28:54
  Original Simulation        3   3  2012 Yr    3 of   14 Time   9:28:55
  Original Simulation        3   4  2012 Yr    3 of   14 Time   9:28:55
  Original Simulation        3   5  2012 Yr    3 of   14 Time   9:28:56
  Original Simulation        3   6  2012 Yr    3 of   14 Time   9:28:57
  Original Simulation        3   7  2012 Yr    3 of   14 Time   9:28:58
  Original Simulation        3   8  2012 Yr    3 of   14 Time   9:28:59
  Original Simulation        3   9  2012 Yr    3 of   14 Time   9:29: 0
  Original Simulation        3  10  2012 Yr    3 of   14 Time   9:29: 1
  Original Simulation        3  11  2012 Yr    3 of   14 Time   9:29: 2
  Original Simulation        3  12  2012 Yr    3 of   14 Time   9:29: 3
  Original Simulation        3  13  2012 Yr    3 of   14 Time   9:29: 3
  Original Simulation        3  14  2012 Yr    3 of   14 Time   9:29: 4
  Original Simulation        3  15  2012 Yr    3 of   14 Time   9:29: 5
  Original Simulation        3  16  2012 Yr    3 of   14 Time   9:29: 6
  Original Simulation        3  17  2012 Yr    3 of   14 Time   9:29: 7
  Original Simulation        3  18  2012 Yr    3 of   14 Time   9:29: 8
  Original Simulation        3  19  2012 Yr    3 of   14 Time   9:29: 9
  Original Simulation        3  20  2012 Yr    3 of   14 Time   9:29:10
  Original Simulation        3  21  2012 Yr    3 of   14 Time   9:29:11
  Original Simulation        3  22  2012 Yr    3 of   14 Time   9:29:11
  Original Simulation        3  23  2012 Yr    3 of   14 Time   9:29:12
  Original Simulation        3  24  2012 Yr    3 of   14 Time   9:29:13
  Original Simulation        3  25  2012 Yr    3 of   14 Time   9:29:14
  Original Simulation        3  26  2012 Yr    3 of   14 Time   9:29:15
  Original Simulation        3  27  2012 Yr    3 of   14 Time   9:29:16
  Original Simulation        3  28  2012 Yr    3 of   14 Time   9:29:17
  Original Simulation        3  29  2012 Yr    3 of   14 Time   9:29:18
  Original Simulation        3  30  2012 Yr    3 of   14 Time   9:29:19
  Original Simulation        3  31  2012 Yr    3 of   14 Time   9:29:20
  Original Simulation        4   1  2012 Yr    3 of   14 Time   9:29:20
  Original Simulation        4   2  2012 Yr    3 of   14 Time   9:29:21
  Original Simulation        4   3  2012 Yr    3 of   14 Time   9:29:22
  Original Simulation        4   4  2012 Yr    3 of   14 Time   9:29:23
  Original Simulation        4   5  2012 Yr    3 of   14 Time   9:29:24
  Original Simulation        4   6  2012 Yr    3 of   14 Time   9:29:25
  Original Simulation        4   7  2012 Yr    3 of   14 Time   9:29:26
  Original Simulation        4   8  2012 Yr    3 of   14 Time   9:29:27
  Original Simulation        4   9  2012 Yr    3 of   14 Time   9:29:28
  Original Simulation        4  10  2012 Yr    3 of   14 Time   9:29:28
  Original Simulation        4  11  2012 Yr    3 of   14 Time   9:29:29
  Original Simulation        4  12  2012 Yr    3 of   14 Time   9:29:30
  Original Simulation        4  13  2012 Yr    3 of   14 Time   9:29:31
  Original Simulation        4  14  2012 Yr    3 of   14 Time   9:29:32
  Original Simulation        4  15  2012 Yr    3 of   14 Time   9:29:33
  Original Simulation        4  16  2012 Yr    3 of   14 Time   9:29:34
  Original Simulation        4  17  2012 Yr    3 of   14 Time   9:29:35
  Original Simulation        4  18  2012 Yr    3 of   14 Time   9:29:36
  Original Simulation        4  19  2012 Yr    3 of   14 Time   9:29:36
  Original Simulation        4  20  2012 Yr    3 of   14 Time   9:29:37
  Original Simulation        4  21  2012 Yr    3 of   14 Time   9:29:38
  Original Simulation        4  22  2012 Yr    3 of   14 Time   9:29:39
  Original Simulation        4  23  2012 Yr    3 of   14 Time   9:29:40
  Original Simulation        4  24  2012 Yr    3 of   14 Time   9:29:41
  Original Simulation        4  25  2012 Yr    3 of   14 Time   9:29:42
  Original Simulation        4  26  2012 Yr    3 of   14 Time   9:29:43
  Original Simulation        4  27  2012 Yr    3 of   14 Time   9:29:44
  Original Simulation        4  28  2012 Yr    3 of   14 Time   9:29:45
  Original Simulation        4  29  2012 Yr    3 of   14 Time   9:29:45
  Original Simulation        4  30  2012 Yr    3 of   14 Time   9:29:46
  Original Simulation        5   1  2012 Yr    3 of   14 Time   9:29:47
  Original Simulation        5   2  2012 Yr    3 of   14 Time   9:29:48
  Original Simulation        5   3  2012 Yr    3 of   14 Time   9:29:49
  Original Simulation        5   4  2012 Yr    3 of   14 Time   9:29:50
  Original Simulation        5   5  2012 Yr    3 of   14 Time   9:29:51
  Original Simulation        5   6  2012 Yr    3 of   14 Time   9:29:52
  Original Simulation        5   7  2012 Yr    3 of   14 Time   9:29:53
  Original Simulation        5   8  2012 Yr    3 of   14 Time   9:29:54
  Original Simulation        5   9  2012 Yr    3 of   14 Time   9:29:55
  Original Simulation        5  10  2012 Yr    3 of   14 Time   9:29:55
  Original Simulation        5  11  2012 Yr    3 of   14 Time   9:29:56
  Original Simulation        5  12  2012 Yr    3 of   14 Time   9:29:57
  Original Simulation        5  13  2012 Yr    3 of   14 Time   9:29:58
  Original Simulation        5  14  2012 Yr    3 of   14 Time   9:29:59
  Original Simulation        5  15  2012 Yr    3 of   14 Time   9:30: 0
  Original Simulation        5  16  2012 Yr    3 of   14 Time   9:30: 1
  Original Simulation        5  17  2012 Yr    3 of   14 Time   9:30: 2
  Original Simulation        5  18  2012 Yr    3 of   14 Time   9:30: 3
  Original Simulation        5  19  2012 Yr    3 of   14 Time   9:30: 4
  Original Simulation        5  20  2012 Yr    3 of   14 Time   9:30: 5
  Original Simulation        5  21  2012 Yr    3 of   14 Time   9:30: 6
  Original Simulation        5  22  2012 Yr    3 of   14 Time   9:30: 7
  Original Simulation        5  23  2012 Yr    3 of   14 Time   9:30: 8
  Original Simulation        5  24  2012 Yr    3 of   14 Time   9:30: 9
  Original Simulation        5  25  2012 Yr    3 of   14 Time   9:30:10
  Original Simulation        5  26  2012 Yr    3 of   14 Time   9:30:11
  Original Simulation        5  27  2012 Yr    3 of   14 Time   9:30:12
  Original Simulation        5  28  2012 Yr    3 of   14 Time   9:30:13
  Original Simulation        5  29  2012 Yr    3 of   14 Time   9:30:14
  Original Simulation        5  30  2012 Yr    3 of   14 Time   9:30:14
  Original Simulation        5  31  2012 Yr    3 of   14 Time   9:30:15
  Original Simulation        6   1  2012 Yr    3 of   14 Time   9:30:16
  Original Simulation        6   2  2012 Yr    3 of   14 Time   9:30:17
  Original Simulation        6   3  2012 Yr    3 of   14 Time   9:30:18
  Original Simulation        6   4  2012 Yr    3 of   14 Time   9:30:19
  Original Simulation        6   5  2012 Yr    3 of   14 Time   9:30:20
  Original Simulation        6   6  2012 Yr    3 of   14 Time   9:30:21
  Original Simulation        6   7  2012 Yr    3 of   14 Time   9:30:22
  Original Simulation        6   8  2012 Yr    3 of   14 Time   9:30:23
  Original Simulation        6   9  2012 Yr    3 of   14 Time   9:30:24
  Original Simulation        6  10  2012 Yr    3 of   14 Time   9:30:25
  Original Simulation        6  11  2012 Yr    3 of   14 Time   9:30:26
  Original Simulation        6  12  2012 Yr    3 of   14 Time   9:30:27
  Original Simulation        6  13  2012 Yr    3 of   14 Time   9:30:28
  Original Simulation        6  14  2012 Yr    3 of   14 Time   9:30:29
  Original Simulation        6  15  2012 Yr    3 of   14 Time   9:30:30
  Original Simulation        6  16  2012 Yr    3 of   14 Time   9:30:31
  Original Simulation        6  17  2012 Yr    3 of   14 Time   9:30:32
  Original Simulation        6  18  2012 Yr    3 of   14 Time   9:30:32
  Original Simulation        6  19  2012 Yr    3 of   14 Time   9:30:33
  Original Simulation        6  20  2012 Yr    3 of   14 Time   9:30:34
  Original Simulation        6  21  2012 Yr    3 of   14 Time   9:30:35
  Original Simulation        6  22  2012 Yr    3 of   14 Time   9:30:36
  Original Simulation        6  23  2012 Yr    3 of   14 Time   9:30:37
  Original Simulation        6  24  2012 Yr    3 of   14 Time   9:30:38
  Original Simulation        6  25  2012 Yr    3 of   14 Time   9:30:39
  Original Simulation        6  26  2012 Yr    3 of   14 Time   9:30:40
  Original Simulation        6  27  2012 Yr    3 of   14 Time   9:30:41
  Original Simulation        6  28  2012 Yr    3 of   14 Time   9:30:42
  Original Simulation        6  29  2012 Yr    3 of   14 Time   9:30:43
  Original Simulation        6  30  2012 Yr    3 of   14 Time   9:30:44
  Original Simulation        7   1  2012 Yr    3 of   14 Time   9:30:45
  Original Simulation        7   2  2012 Yr    3 of   14 Time   9:30:46
  Original Simulation        7   3  2012 Yr    3 of   14 Time   9:30:47
  Original Simulation        7   4  2012 Yr    3 of   14 Time   9:30:48
  Original Simulation        7   5  2012 Yr    3 of   14 Time   9:30:49
  Original Simulation        7   6  2012 Yr    3 of   14 Time   9:30:50
  Original Simulation        7   7  2012 Yr    3 of   14 Time   9:30:50
  Original Simulation        7   8  2012 Yr    3 of   14 Time   9:30:51
  Original Simulation        7   9  2012 Yr    3 of   14 Time   9:30:52
  Original Simulation        7  10  2012 Yr    3 of   14 Time   9:30:53
  Original Simulation        7  11  2012 Yr    3 of   14 Time   9:30:54
  Original Simulation        7  12  2012 Yr    3 of   14 Time   9:30:55
  Original Simulation        7  13  2012 Yr    3 of   14 Time   9:30:56
  Original Simulation        7  14  2012 Yr    3 of   14 Time   9:30:57
  Original Simulation        7  15  2012 Yr    3 of   14 Time   9:30:58
  Original Simulation        7  16  2012 Yr    3 of   14 Time   9:30:59
  Original Simulation        7  17  2012 Yr    3 of   14 Time   9:31: 0
  Original Simulation        7  18  2012 Yr    3 of   14 Time   9:31: 1
  Original Simulation        7  19  2012 Yr    3 of   14 Time   9:31: 2
  Original Simulation        7  20  2012 Yr    3 of   14 Time   9:31: 3
  Original Simulation        7  21  2012 Yr    3 of   14 Time   9:31: 4
  Original Simulation        7  22  2012 Yr    3 of   14 Time   9:31: 5
  Original Simulation        7  23  2012 Yr    3 of   14 Time   9:31: 6
  Original Simulation        7  24  2012 Yr    3 of   14 Time   9:31: 7
  Original Simulation        7  25  2012 Yr    3 of   14 Time   9:31: 8
  Original Simulation        7  26  2012 Yr    3 of   14 Time   9:31: 9
  Original Simulation        7  27  2012 Yr    3 of   14 Time   9:31:10
  Original Simulation        7  28  2012 Yr    3 of   14 Time   9:31:11
  Original Simulation        7  29  2012 Yr    3 of   14 Time   9:31:12
  Original Simulation        7  30  2012 Yr    3 of   14 Time   9:31:13
  Original Simulation        7  31  2012 Yr    3 of   14 Time   9:31:14
  Original Simulation        8   1  2012 Yr    3 of   14 Time   9:31:15
  Original Simulation        8   2  2012 Yr    3 of   14 Time   9:31:15
  Original Simulation        8   3  2012 Yr    3 of   14 Time   9:31:16
  Original Simulation        8   4  2012 Yr    3 of   14 Time   9:31:17
  Original Simulation        8   5  2012 Yr    3 of   14 Time   9:31:18
  Original Simulation        8   6  2012 Yr    3 of   14 Time   9:31:19
  Original Simulation        8   7  2012 Yr    3 of   14 Time   9:31:20
  Original Simulation        8   8  2012 Yr    3 of   14 Time   9:31:21
  Original Simulation        8   9  2012 Yr    3 of   14 Time   9:31:22
  Original Simulation        8  10  2012 Yr    3 of   14 Time   9:31:23
  Original Simulation        8  11  2012 Yr    3 of   14 Time   9:31:24
  Original Simulation        8  12  2012 Yr    3 of   14 Time   9:31:25
  Original Simulation        8  13  2012 Yr    3 of   14 Time   9:31:26
  Original Simulation        8  14  2012 Yr    3 of   14 Time   9:31:27
  Original Simulation        8  15  2012 Yr    3 of   14 Time   9:31:28
  Original Simulation        8  16  2012 Yr    3 of   14 Time   9:31:29
  Original Simulation        8  17  2012 Yr    3 of   14 Time   9:31:30
  Original Simulation        8  18  2012 Yr    3 of   14 Time   9:31:31
  Original Simulation        8  19  2012 Yr    3 of   14 Time   9:31:32
  Original Simulation        8  20  2012 Yr    3 of   14 Time   9:31:33
  Original Simulation        8  21  2012 Yr    3 of   14 Time   9:31:34
  Original Simulation        8  22  2012 Yr    3 of   14 Time   9:31:35
  Original Simulation        8  23  2012 Yr    3 of   14 Time   9:31:36
  Original Simulation        8  24  2012 Yr    3 of   14 Time   9:31:37
  Original Simulation        8  25  2012 Yr    3 of   14 Time   9:31:38
  Original Simulation        8  26  2012 Yr    3 of   14 Time   9:31:39
  Original Simulation        8  27  2012 Yr    3 of   14 Time   9:31:40
  Original Simulation        8  28  2012 Yr    3 of   14 Time   9:31:40
  Original Simulation        8  29  2012 Yr    3 of   14 Time   9:31:41
  Original Simulation        8  30  2012 Yr    3 of   14 Time   9:31:42
  Original Simulation        8  31  2012 Yr    3 of   14 Time   9:31:43
  Original Simulation        9   1  2012 Yr    3 of   14 Time   9:31:44
  Original Simulation        9   2  2012 Yr    3 of   14 Time   9:31:45
  Original Simulation        9   3  2012 Yr    3 of   14 Time   9:31:46
  Original Simulation        9   4  2012 Yr    3 of   14 Time   9:31:47
  Original Simulation        9   5  2012 Yr    3 of   14 Time   9:31:48
  Original Simulation        9   6  2012 Yr    3 of   14 Time   9:31:49
  Original Simulation        9   7  2012 Yr    3 of   14 Time   9:31:50
  Original Simulation        9   8  2012 Yr    3 of   14 Time   9:31:51
  Original Simulation        9   9  2012 Yr    3 of   14 Time   9:31:52
  Original Simulation        9  10  2012 Yr    3 of   14 Time   9:31:53
  Original Simulation        9  11  2012 Yr    3 of   14 Time   9:31:54
  Original Simulation        9  12  2012 Yr    3 of   14 Time   9:31:55
  Original Simulation        9  13  2012 Yr    3 of   14 Time   9:31:56
  Original Simulation        9  14  2012 Yr    3 of   14 Time   9:31:57
  Original Simulation        9  15  2012 Yr    3 of   14 Time   9:31:58
  Original Simulation        9  16  2012 Yr    3 of   14 Time   9:31:59
  Original Simulation        9  17  2012 Yr    3 of   14 Time   9:32: 0
  Original Simulation        9  18  2012 Yr    3 of   14 Time   9:32: 1
  Original Simulation        9  19  2012 Yr    3 of   14 Time   9:32: 2
  Original Simulation        9  20  2012 Yr    3 of   14 Time   9:32: 3
  Original Simulation        9  21  2012 Yr    3 of   14 Time   9:32: 4
  Original Simulation        9  22  2012 Yr    3 of   14 Time   9:32: 4
  Original Simulation        9  23  2012 Yr    3 of   14 Time   9:32: 5
  Original Simulation        9  24  2012 Yr    3 of   14 Time   9:32: 6
  Original Simulation        9  25  2012 Yr    3 of   14 Time   9:32: 7
  Original Simulation        9  26  2012 Yr    3 of   14 Time   9:32: 8
  Original Simulation        9  27  2012 Yr    3 of   14 Time   9:32: 9
  Original Simulation        9  28  2012 Yr    3 of   14 Time   9:32:10
  Original Simulation        9  29  2012 Yr    3 of   14 Time   9:32:11
  Original Simulation        9  30  2012 Yr    3 of   14 Time   9:32:12
  Original Simulation       10   1  2012 Yr    3 of   14 Time   9:32:13
  Original Simulation       10   2  2012 Yr    3 of   14 Time   9:32:14
  Original Simulation       10   3  2012 Yr    3 of   14 Time   9:32:15
  Original Simulation       10   4  2012 Yr    3 of   14 Time   9:32:16
  Original Simulation       10   5  2012 Yr    3 of   14 Time   9:32:17
  Original Simulation       10   6  2012 Yr    3 of   14 Time   9:32:17
  Original Simulation       10   7  2012 Yr    3 of   14 Time   9:32:18
  Original Simulation       10   8  2012 Yr    3 of   14 Time   9:32:19
  Original Simulation       10   9  2012 Yr    3 of   14 Time   9:32:20
  Original Simulation       10  10  2012 Yr    3 of   14 Time   9:32:21
  Original Simulation       10  11  2012 Yr    3 of   14 Time   9:32:22
  Original Simulation       10  12  2012 Yr    3 of   14 Time   9:32:23
  Original Simulation       10  13  2012 Yr    3 of   14 Time   9:32:24
  Original Simulation       10  14  2012 Yr    3 of   14 Time   9:32:25
  Original Simulation       10  15  2012 Yr    3 of   14 Time   9:32:26
  Original Simulation       10  16  2012 Yr    3 of   14 Time   9:32:27
  Original Simulation       10  17  2012 Yr    3 of   14 Time   9:32:27
  Original Simulation       10  18  2012 Yr    3 of   14 Time   9:32:28
  Original Simulation       10  19  2012 Yr    3 of   14 Time   9:32:29
  Original Simulation       10  20  2012 Yr    3 of   14 Time   9:32:30
  Original Simulation       10  21  2012 Yr    3 of   14 Time   9:32:31
  Original Simulation       10  22  2012 Yr    3 of   14 Time   9:32:32
  Original Simulation       10  23  2012 Yr    3 of   14 Time   9:32:33
  Original Simulation       10  24  2012 Yr    3 of   14 Time   9:32:34
  Original Simulation       10  25  2012 Yr    3 of   14 Time   9:32:35
  Original Simulation       10  26  2012 Yr    3 of   14 Time   9:32:36
  Original Simulation       10  27  2012 Yr    3 of   14 Time   9:32:36
  Original Simulation       10  28  2012 Yr    3 of   14 Time   9:32:37
  Original Simulation       10  29  2012 Yr    3 of   14 Time   9:32:38
  Original Simulation       10  30  2012 Yr    3 of   14 Time   9:32:39
  Original Simulation       10  31  2012 Yr    3 of   14 Time   9:32:40
  Original Simulation       11   1  2012 Yr    3 of   14 Time   9:32:41
  Original Simulation       11   2  2012 Yr    3 of   14 Time   9:32:42
  Original Simulation       11   3  2012 Yr    3 of   14 Time   9:32:43
  Original Simulation       11   4  2012 Yr    3 of   14 Time   9:32:44
  Original Simulation       11   5  2012 Yr    3 of   14 Time   9:32:45
  Original Simulation       11   6  2012 Yr    3 of   14 Time   9:32:45
  Original Simulation       11   7  2012 Yr    3 of   14 Time   9:32:46
  Original Simulation       11   8  2012 Yr    3 of   14 Time   9:32:47
  Original Simulation       11   9  2012 Yr    3 of   14 Time   9:32:48
  Original Simulation       11  10  2012 Yr    3 of   14 Time   9:32:49
  Original Simulation       11  11  2012 Yr    3 of   14 Time   9:32:50
  Original Simulation       11  12  2012 Yr    3 of   14 Time   9:32:51
  Original Simulation       11  13  2012 Yr    3 of   14 Time   9:32:52
  Original Simulation       11  14  2012 Yr    3 of   14 Time   9:32:52
  Original Simulation       11  15  2012 Yr    3 of   14 Time   9:32:53
  Original Simulation       11  16  2012 Yr    3 of   14 Time   9:32:54
  Original Simulation       11  17  2012 Yr    3 of   14 Time   9:32:55
  Original Simulation       11  18  2012 Yr    3 of   14 Time   9:32:56
  Original Simulation       11  19  2012 Yr    3 of   14 Time   9:32:57
  Original Simulation       11  20  2012 Yr    3 of   14 Time   9:32:58
  Original Simulation       11  21  2012 Yr    3 of   14 Time   9:32:59
  Original Simulation       11  22  2012 Yr    3 of   14 Time   9:32:59
  Original Simulation       11  23  2012 Yr    3 of   14 Time   9:33: 0
  Original Simulation       11  24  2012 Yr    3 of   14 Time   9:33: 1
  Original Simulation       11  25  2012 Yr    3 of   14 Time   9:33: 2
  Original Simulation       11  26  2012 Yr    3 of   14 Time   9:33: 3
  Original Simulation       11  27  2012 Yr    3 of   14 Time   9:33: 4
  Original Simulation       11  28  2012 Yr    3 of   14 Time   9:33: 5
  Original Simulation       11  29  2012 Yr    3 of   14 Time   9:33: 6
  Original Simulation       11  30  2012 Yr    3 of   14 Time   9:33: 7
  Original Simulation       12   1  2012 Yr    3 of   14 Time   9:33: 7
  Original Simulation       12   2  2012 Yr    3 of   14 Time   9:33: 8
  Original Simulation       12   3  2012 Yr    3 of   14 Time   9:33: 9
  Original Simulation       12   4  2012 Yr    3 of   14 Time   9:33:10
  Original Simulation       12   5  2012 Yr    3 of   14 Time   9:33:11
  Original Simulation       12   6  2012 Yr    3 of   14 Time   9:33:12
  Original Simulation       12   7  2012 Yr    3 of   14 Time   9:33:13
  Original Simulation       12   8  2012 Yr    3 of   14 Time   9:33:13
  Original Simulation       12   9  2012 Yr    3 of   14 Time   9:33:14
  Original Simulation       12  10  2012 Yr    3 of   14 Time   9:33:15
  Original Simulation       12  11  2012 Yr    3 of   14 Time   9:33:16
  Original Simulation       12  12  2012 Yr    3 of   14 Time   9:33:17
  Original Simulation       12  13  2012 Yr    3 of   14 Time   9:33:17
  Original Simulation       12  14  2012 Yr    3 of   14 Time   9:33:18
  Original Simulation       12  15  2012 Yr    3 of   14 Time   9:33:19
  Original Simulation       12  16  2012 Yr    3 of   14 Time   9:33:20
  Original Simulation       12  17  2012 Yr    3 of   14 Time   9:33:21
  Original Simulation       12  18  2012 Yr    3 of   14 Time   9:33:22
  Original Simulation       12  19  2012 Yr    3 of   14 Time   9:33:22
  Original Simulation       12  20  2012 Yr    3 of   14 Time   9:33:23
  Original Simulation       12  21  2012 Yr    3 of   14 Time   9:33:24
  Original Simulation       12  22  2012 Yr    3 of   14 Time   9:33:25
  Original Simulation       12  23  2012 Yr    3 of   14 Time   9:33:26
  Original Simulation       12  24  2012 Yr    3 of   14 Time   9:33:27
  Original Simulation       12  25  2012 Yr    3 of   14 Time   9:33:27
  Original Simulation       12  26  2012 Yr    3 of   14 Time   9:33:28
  Original Simulation       12  27  2012 Yr    3 of   14 Time   9:33:29
  Original Simulation       12  28  2012 Yr    3 of   14 Time   9:33:30
  Original Simulation       12  29  2012 Yr    3 of   14 Time   9:33:31
  Original Simulation       12  30  2012 Yr    3 of   14 Time   9:33:31
  Original Simulation       12  31  2012 Yr    3 of   14 Time   9:33:32
  Original Simulation        1   1  2013 Yr    4 of   14 Time   9:33:33
  Original Simulation        1   2  2013 Yr    4 of   14 Time   9:33:34
  Original Simulation        1   3  2013 Yr    4 of   14 Time   9:33:35
  Original Simulation        1   4  2013 Yr    4 of   14 Time   9:33:36
  Original Simulation        1   5  2013 Yr    4 of   14 Time   9:33:36
  Original Simulation        1   6  2013 Yr    4 of   14 Time   9:33:37
[...]
  Original Simulation        4  11  2017 Yr    8 of   14 Time   9:57:39
  Original Simulation        4  12  2017 Yr    8 of   14 Time   9:57:40
  Original Simulation        4  13  2017 Yr    8 of   14 Time   9:57:41
  Original Simulation        4  14  2017 Yr    8 of   14 Time   9:57:42
  Original Simulation        4  15  2017 Yr    8 of   14 Time   9:57:43
  Original Simulation        4  16  2017 Yr    8 of   14 Time   9:57:44
  Original Simulation        4  17  2017 Yr    8 of   14 Time   9:57:45
  Original Simulation        4  18  2017 Yr    8 of   14 Time   9:57:46
  Original Simulation        4  19  2017 Yr    8 of   14 Time   9:57:47
  Original Simulation        4  20  2017 Yr    8 of   14 Time   9:57:47
  Original Simulation        4  21  2017 Yr    8 of   14 Time   9:57:48
  Original Simulation        4  22  2017 Yr    8 of   14 Time   9:57:49
  Original Simulation        4  23  2017 Yr    8 of   14 Time   9:57:50
  Original Simulation        4  24  2017 Yr    8 of   14 Time   9:57:51
  Original Simulation        4  25  2017 Yr    8 of   14 Time   9:57:52
  Original Simulation        4  26  2017 Yr    8 of   14 Time   9:57:53
  Original Simulation        4  27  2017 Yr    8 of   14 Time   9:57:54
  Original Simulation        4  28  2017 Yr    8 of   14 Time   9:57:55
  Original Simulation        4  29  2017 Yr    8 of   14 Time   9:57:56
  Original Simulation        4  30  2017 Yr    8 of   14 Time   9:57:57
  Original Simulation        5   1  2017 Yr    8 of   14 Time   9:57:57
  Original Simulation        5   2  2017 Yr    8 of   14 Time   9:57:58
  Original Simulation        5   3  2017 Yr    8 of   14 Time   9:57:59
  Original Simulation        5   4  2017 Yr    8 of   14 Time   9:58: 0
  Original Simulation        5   5  2017 Yr    8 of   14 Time   9:58: 1
  Original Simulation        5   6  2017 Yr    8 of   14 Time   9:58: 2
  Original Simulation        5   7  2017 Yr    8 of   14 Time   9:58: 3
  Original Simulation        5   8  2017 Yr    8 of   14 Time   9:58: 4
  Original Simulation        5   9  2017 Yr    8 of   14 Time   9:58: 5
  Original Simulation        5  10  2017 Yr    8 of   14 Time   9:58: 6
  Original Simulation        5  11  2017 Yr    8 of   14 Time   9:58: 7
  Original Simulation        5  12  2017 Yr    8 of   14 Time   9:58: 8
  Original Simulation        5  13  2017 Yr    8 of   14 Time   9:58: 9
  Original Simulation        5  14  2017 Yr    8 of   14 Time   9:58:10
  Original Simulation        5  15  2017 Yr    8 of   14 Time   9:58:11
  Original Simulation        5  16  2017 Yr    8 of   14 Time   9:58:12
  Original Simulation        5  17  2017 Yr    8 of   14 Time   9:58:13
  Original Simulation        5  18  2017 Yr    8 of   14 Time   9:58:14
  Original Simulation        5  19  2017 Yr    8 of   14 Time   9:58:15
  Original Simulation        5  20  2017 Yr    8 of   14 Time   9:58:16
  Original Simulation        5  21  2017 Yr    8 of   14 Time   9:58:17
  Original Simulation        5  22  2017 Yr    8 of   14 Time   9:58:18
  Original Simulation        5  23  2017 Yr    8 of   14 Time   9:58:19
  Original Simulation        5  24  2017 Yr    8 of   14 Time   9:58:20
  Original Simulation        5  25  2017 Yr    8 of   14 Time   9:58:21
  Original Simulation        5  26  2017 Yr    8 of   14 Time   9:58:22
  Original Simulation        5  27  2017 Yr    8 of   14 Time   9:58:22
  Original Simulation        5  28  2017 Yr    8 of   14 Time   9:58:23
  Original Simulation        5  29  2017 Yr    8 of   14 Time   9:58:24
  Original Simulation        5  30  2017 Yr    8 of   14 Time   9:58:25
  Original Simulation        5  31  2017 Yr    8 of   14 Time   9:58:26
  Original Simulation        6   1  2017 Yr    8 of   14 Time   9:58:27
  Original Simulation        6   2  2017 Yr    8 of   14 Time   9:58:28
  Original Simulation        6   3  2017 Yr    8 of   14 Time   9:58:29
  Original Simulation        6   4  2017 Yr    8 of   14 Time   9:58:30
  Original Simulation        6   5  2017 Yr    8 of   14 Time   9:58:31
  Original Simulation        6   6  2017 Yr    8 of   14 Time   9:58:32
  Original Simulation        6   7  2017 Yr    8 of   14 Time   9:58:33
  Original Simulation        6   8  2017 Yr    8 of   14 Time   9:58:34
  Original Simulation        6   9  2017 Yr    8 of   14 Time   9:58:35
  Original Simulation        6  10  2017 Yr    8 of   14 Time   9:58:36
  Original Simulation        6  11  2017 Yr    8 of   14 Time   9:58:37
  Original Simulation        6  12  2017 Yr    8 of   14 Time   9:58:38
  Original Simulation        6  13  2017 Yr    8 of   14 Time   9:58:39
  Original Simulation        6  14  2017 Yr    8 of   14 Time   9:58:40
  Original Simulation        6  15  2017 Yr    8 of   14 Time   9:58:41
  Original Simulation        6  16  2017 Yr    8 of   14 Time   9:58:42
  Original Simulation        6  17  2017 Yr    8 of   14 Time   9:58:43
  Original Simulation        6  18  2017 Yr    8 of   14 Time   9:58:44
  Original Simulation        6  19  2017 Yr    8 of   14 Time   9:58:45
  Original Simulation        6  20  2017 Yr    8 of   14 Time   9:58:46
  Original Simulation        6  21  2017 Yr    8 of   14 Time   9:58:47
  Original Simulation        6  22  2017 Yr    8 of   14 Time   9:58:48
  Original Simulation        6  23  2017 Yr    8 of   14 Time   9:58:49
  Original Simulation        6  24  2017 Yr    8 of   14 Time   9:58:50
  Original Simulation        6  25  2017 Yr    8 of   14 Time   9:58:51
  Original Simulation        6  26  2017 Yr    8 of   14 Time   9:58:52
  Original Simulation        6  27  2017 Yr    8 of   14 Time   9:58:53
  Original Simulation        6  28  2017 Yr    8 of   14 Time   9:58:54
  Original Simulation        6  29  2017 Yr    8 of   14 Time   9:58:55
  Original Simulation        6  30  2017 Yr    8 of   14 Time   9:58:56
  Original Simulation        7   1  2017 Yr    8 of   14 Time   9:58:56
  Original Simulation        7   2  2017 Yr    8 of   14 Time   9:58:57
  Original Simulation        7   3  2017 Yr    8 of   14 Time   9:58:58
  Original Simulation        7   4  2017 Yr    8 of   14 Time   9:58:59
  Original Simulation        7   5  2017 Yr    8 of   14 Time   9:59: 0
  Original Simulation        7   6  2017 Yr    8 of   14 Time   9:59: 1
  Original Simulation        7   7  2017 Yr    8 of   14 Time   9:59: 2
  Original Simulation        7   8  2017 Yr    8 of   14 Time   9:59: 3
  Original Simulation        7   9  2017 Yr    8 of   14 Time   9:59: 4
  Original Simulation        7  10  2017 Yr    8 of   14 Time   9:59: 5
  Original Simulation        7  11  2017 Yr    8 of   14 Time   9:59: 6
  Original Simulation        7  12  2017 Yr    8 of   14 Time   9:59: 7
  Original Simulation        7  13  2017 Yr    8 of   14 Time   9:59: 8
  Original Simulation        7  14  2017 Yr    8 of   14 Time   9:59: 9
  Original Simulation        7  15  2017 Yr    8 of   14 Time   9:59:10
  Original Simulation        7  16  2017 Yr    8 of   14 Time   9:59:11
  Original Simulation        7  17  2017 Yr    8 of   14 Time   9:59:12
  Original Simulation        7  18  2017 Yr    8 of   14 Time   9:59:13
  Original Simulation        7  19  2017 Yr    8 of   14 Time   9:59:14
  Original Simulation        7  20  2017 Yr    8 of   14 Time   9:59:15
  Original Simulation        7  21  2017 Yr    8 of   14 Time   9:59:16
  Original Simulation        7  22  2017 Yr    8 of   14 Time   9:59:17
  Original Simulation        7  23  2017 Yr    8 of   14 Time   9:59:18
  Original Simulation        7  24  2017 Yr    8 of   14 Time   9:59:19
  Original Simulation        7  25  2017 Yr    8 of   14 Time   9:59:20
  Original Simulation        7  26  2017 Yr    8 of   14 Time   9:59:21
  Original Simulation        7  27  2017 Yr    8 of   14 Time   9:59:22
  Original Simulation        7  28  2017 Yr    8 of   14 Time   9:59:23
  Original Simulation        7  29  2017 Yr    8 of   14 Time   9:59:24
  Original Simulation        7  30  2017 Yr    8 of   14 Time   9:59:25
  Original Simulation        7  31  2017 Yr    8 of   14 Time   9:59:26
  Original Simulation        8   1  2017 Yr    8 of   14 Time   9:59:27
  Original Simulation        8   2  2017 Yr    8 of   14 Time   9:59:28
  Original Simulation        8   3  2017 Yr    8 of   14 Time   9:59:29
  Original Simulation        8   4  2017 Yr    8 of   14 Time   9:59:30
  Original Simulation        8   5  2017 Yr    8 of   14 Time   9:59:31
  Original Simulation        8   6  2017 Yr    8 of   14 Time   9:59:32
  Original Simulation        8   7  2017 Yr    8 of   14 Time   9:59:33
  Original Simulation        8   8  2017 Yr    8 of   14 Time   9:59:34
  Original Simulation        8   9  2017 Yr    8 of   14 Time   9:59:35
  Original Simulation        8  10  2017 Yr    8 of   14 Time   9:59:36
  Original Simulation        8  11  2017 Yr    8 of   14 Time   9:59:37
  Original Simulation        8  12  2017 Yr    8 of   14 Time   9:59:38
  Original Simulation        8  13  2017 Yr    8 of   14 Time   9:59:39
  Original Simulation        8  14  2017 Yr    8 of   14 Time   9:59:40
  Original Simulation        8  15  2017 Yr    8 of   14 Time   9:59:41
  Original Simulation        8  16  2017 Yr    8 of   14 Time   9:59:42
  Original Simulation        8  17  2017 Yr    8 of   14 Time   9:59:43
  Original Simulation        8  18  2017 Yr    8 of   14 Time   9:59:44
  Original Simulation        8  19  2017 Yr    8 of   14 Time   9:59:45
  Original Simulation        8  20  2017 Yr    8 of   14 Time   9:59:46
  Original Simulation        8  21  2017 Yr    8 of   14 Time   9:59:47
  Original Simulation        8  22  2017 Yr    8 of   14 Time   9:59:48
  Original Simulation        8  23  2017 Yr    8 of   14 Time   9:59:49
  Original Simulation        8  24  2017 Yr    8 of   14 Time   9:59:50
  Original Simulation        8  25  2017 Yr    8 of   14 Time   9:59:51
  Original Simulation        8  26  2017 Yr    8 of   14 Time   9:59:52
  Original Simulation        8  27  2017 Yr    8 of   14 Time   9:59:53
  Original Simulation        8  28  2017 Yr    8 of   14 Time   9:59:54
  Original Simulation        8  29  2017 Yr    8 of   14 Time   9:59:55
  Original Simulation        8  30  2017 Yr    8 of   14 Time   9:59:56
  Original Simulation        8  31  2017 Yr    8 of   14 Time   9:59:57
  Original Simulation        9   1  2017 Yr    8 of   14 Time   9:59:58
  Original Simulation        9   2  2017 Yr    8 of   14 Time   9:59:59
  Original Simulation        9   3  2017 Yr    8 of   14 Time  10: 0: 0
  Original Simulation        9   4  2017 Yr    8 of   14 Time  10: 0: 1
  Original Simulation        9   5  2017 Yr    8 of   14 Time  10: 0: 2
  Original Simulation        9   6  2017 Yr    8 of   14 Time  10: 0: 3
  Original Simulation        9   7  2017 Yr    8 of   14 Time  10: 0: 4
  Original Simulation        9   8  2017 Yr    8 of   14 Time  10: 0: 5
  Original Simulation        9   9  2017 Yr    8 of   14 Time  10: 0: 6
  Original Simulation        9  10  2017 Yr    8 of   14 Time  10: 0: 7
  Original Simulation        9  11  2017 Yr    8 of   14 Time  10: 0: 8
  Original Simulation        9  12  2017 Yr    8 of   14 Time  10: 0: 9
  Original Simulation        9  13  2017 Yr    8 of   14 Time  10: 0:10
  Original Simulation        9  14  2017 Yr    8 of   14 Time  10: 0:11
  Original Simulation        9  15  2017 Yr    8 of   14 Time  10: 0:11
  Original Simulation        9  16  2017 Yr    8 of   14 Time  10: 0:12
  Original Simulation        9  17  2017 Yr    8 of   14 Time  10: 0:13
  Original Simulation        9  18  2017 Yr    8 of   14 Time  10: 0:14
  Original Simulation        9  19  2017 Yr    8 of   14 Time  10: 0:15
  Original Simulation        9  20  2017 Yr    8 of   14 Time  10: 0:16
  Original Simulation        9  21  2017 Yr    8 of   14 Time  10: 0:17
  Original Simulation        9  22  2017 Yr    8 of   14 Time  10: 0:18
  Original Simulation        9  23  2017 Yr    8 of   14 Time  10: 0:19
  Original Simulation        9  24  2017 Yr    8 of   14 Time  10: 0:20
  Original Simulation        9  25  2017 Yr    8 of   14 Time  10: 0:21
  Original Simulation        9  26  2017 Yr    8 of   14 Time  10: 0:22
  Original Simulation        9  27  2017 Yr    8 of   14 Time  10: 0:23
  Original Simulation        9  28  2017 Yr    8 of   14 Time  10: 0:24
  Original Simulation        9  29  2017 Yr    8 of   14 Time  10: 0:25
  Original Simulation        9  30  2017 Yr    8 of   14 Time  10: 0:26
  Original Simulation       10   1  2017 Yr    8 of   14 Time  10: 0:27
  Original Simulation       10   2  2017 Yr    8 of   14 Time  10: 0:28
  Original Simulation       10   3  2017 Yr    8 of   14 Time  10: 0:29
  Original Simulation       10   4  2017 Yr    8 of   14 Time  10: 0:30
  Original Simulation       10   5  2017 Yr    8 of   14 Time  10: 0:31
  Original Simulation       10   6  2017 Yr    8 of   14 Time  10: 0:32
  Original Simulation       10   7  2017 Yr    8 of   14 Time  10: 0:33
  Original Simulation       10   8  2017 Yr    8 of   14 Time  10: 0:34
  Original Simulation       10   9  2017 Yr    8 of   14 Time  10: 0:34
  Original Simulation       10  10  2017 Yr    8 of   14 Time  10: 0:35
  Original Simulation       10  11  2017 Yr    8 of   14 Time  10: 0:36
  Original Simulation       10  12  2017 Yr    8 of   14 Time  10: 0:37
  Original Simulation       10  13  2017 Yr    8 of   14 Time  10: 0:38
  Original Simulation       10  14  2017 Yr    8 of   14 Time  10: 0:39
  Original Simulation       10  15  2017 Yr    8 of   14 Time  10: 0:40
  Original Simulation       10  16  2017 Yr    8 of   14 Time  10: 0:41
  Original Simulation       10  17  2017 Yr    8 of   14 Time  10: 0:42
  Original Simulation       10  18  2017 Yr    8 of   14 Time  10: 0:43
  Original Simulation       10  19  2017 Yr    8 of   14 Time  10: 0:44
  Original Simulation       10  20  2017 Yr    8 of   14 Time  10: 0:45
  Original Simulation       10  21  2017 Yr    8 of   14 Time  10: 0:46
  Original Simulation       10  22  2017 Yr    8 of   14 Time  10: 0:47
  Original Simulation       10  23  2017 Yr    8 of   14 Time  10: 0:48
  Original Simulation       10  24  2017 Yr    8 of   14 Time  10: 0:48
  Original Simulation       10  25  2017 Yr    8 of   14 Time  10: 0:49
  Original Simulation       10  26  2017 Yr    8 of   14 Time  10: 0:50
  Original Simulation       10  27  2017 Yr    8 of   14 Time  10: 0:51
  Original Simulation       10  28  2017 Yr    8 of   14 Time  10: 0:52
  Original Simulation       10  29  2017 Yr    8 of   14 Time  10: 0:53
  Original Simulation       10  30  2017 Yr    8 of   14 Time  10: 0:54
  Original Simulation       10  31  2017 Yr    8 of   14 Time  10: 0:55
  Original Simulation       11   1  2017 Yr    8 of   14 Time  10: 0:56
  Original Simulation       11   2  2017 Yr    8 of   14 Time  10: 0:57
  Original Simulation       11   3  2017 Yr    8 of   14 Time  10: 0:58
  Original Simulation       11   4  2017 Yr    8 of   14 Time  10: 0:59
  Original Simulation       11   5  2017 Yr    8 of   14 Time  10: 1: 0
  Original Simulation       11   6  2017 Yr    8 of   14 Time  10: 1: 0
  Original Simulation       11   7  2017 Yr    8 of   14 Time  10: 1: 1
  Original Simulation       11   8  2017 Yr    8 of   14 Time  10: 1: 2
  Original Simulation       11   9  2017 Yr    8 of   14 Time  10: 1: 3
  Original Simulation       11  10  2017 Yr    8 of   14 Time  10: 1: 4
  Original Simulation       11  11  2017 Yr    8 of   14 Time  10: 1: 5
  Original Simulation       11  12  2017 Yr    8 of   14 Time  10: 1: 6
  Original Simulation       11  13  2017 Yr    8 of   14 Time  10: 1: 7
  Original Simulation       11  14  2017 Yr    8 of   14 Time  10: 1: 8
  Original Simulation       11  15  2017 Yr    8 of   14 Time  10: 1: 9
  Original Simulation       11  16  2017 Yr    8 of   14 Time  10: 1: 9
  Original Simulation       11  17  2017 Yr    8 of   14 Time  10: 1:10
  Original Simulation       11  18  2017 Yr    8 of   14 Time  10: 1:11
  Original Simulation       11  19  2017 Yr    8 of   14 Time  10: 1:12
  Original Simulation       11  20  2017 Yr    8 of   14 Time  10: 1:13
  Original Simulation       11  21  2017 Yr    8 of   14 Time  10: 1:14
  Original Simulation       11  22  2017 Yr    8 of   14 Time  10: 1:15
  Original Simulation       11  23  2017 Yr    8 of   14 Time  10: 1:16
  Original Simulation       11  24  2017 Yr    8 of   14 Time  10: 1:17
  Original Simulation       11  25  2017 Yr    8 of   14 Time  10: 1:17
  Original Simulation       11  26  2017 Yr    8 of   14 Time  10: 1:18
  Original Simulation       11  27  2017 Yr    8 of   14 Time  10: 1:19
  Original Simulation       11  28  2017 Yr    8 of   14 Time  10: 1:20
  Original Simulation       11  29  2017 Yr    8 of   14 Time  10: 1:21
  Original Simulation       11  30  2017 Yr    8 of   14 Time  10: 1:22
  Original Simulation       12   1  2017 Yr    8 of   14 Time  10: 1:23
  Original Simulation       12   2  2017 Yr    8 of   14 Time  10: 1:24
  Original Simulation       12   3  2017 Yr    8 of   14 Time  10: 1:25
  Original Simulation       12   4  2017 Yr    8 of   14 Time  10: 1:25
  Original Simulation       12   5  2017 Yr    8 of   14 Time  10: 1:26
  Original Simulation       12   6  2017 Yr    8 of   14 Time  10: 1:27
  Original Simulation       12   7  2017 Yr    8 of   14 Time  10: 1:28
  Original Simulation       12   8  2017 Yr    8 of   14 Time  10: 1:29
  Original Simulation       12   9  2017 Yr    8 of   14 Time  10: 1:30
  Original Simulation       12  10  2017 Yr    8 of   14 Time  10: 1:31
  Original Simulation       12  11  2017 Yr    8 of   14 Time  10: 1:32
  Original Simulation       12  12  2017 Yr    8 of   14 Time  10: 1:33
  Original Simulation       12  13  2017 Yr    8 of   14 Time  10: 1:33
  Original Simulation       12  14  2017 Yr    8 of   14 Time  10: 1:34
  Original Simulation       12  15  2017 Yr    8 of   14 Time  10: 1:35
  Original Simulation       12  16  2017 Yr    8 of   14 Time  10: 1:36
  Original Simulation       12  17  2017 Yr    8 of   14 Time  10: 1:37
  Original Simulation       12  18  2017 Yr    8 of   14 Time  10: 1:38
  Original Simulation       12  19  2017 Yr    8 of   14 Time  10: 1:39
  Original Simulation       12  20  2017 Yr    8 of   14 Time  10: 1:39
  Original Simulation       12  21  2017 Yr    8 of   14 Time  10: 1:40
  Original Simulation       12  22  2017 Yr    8 of   14 Time  10: 1:41
  Original Simulation       12  23  2017 Yr    8 of   14 Time  10: 1:42
  Original Simulation       12  24  2017 Yr    8 of   14 Time  10: 1:43
  Original Simulation       12  25  2017 Yr    8 of   14 Time  10: 1:44
  Original Simulation       12  26  2017 Yr    8 of   14 Time  10: 1:45
  Original Simulation       12  27  2017 Yr    8 of   14 Time  10: 1:45
  Original Simulation       12  28  2017 Yr    8 of   14 Time  10: 1:46
  Original Simulation       12  29  2017 Yr    8 of   14 Time  10: 1:47
  Original Simulation       12  30  2017 Yr    8 of   14 Time  10: 1:48
  Original Simulation       12  31  2017 Yr    8 of   14 Time  10: 1:49
  Original Simulation        1   1  2018 Yr    9 of   14 Time  10: 1:50
  Original Simulation        1   2  2018 Yr    9 of   14 Time  10: 1:51
  Original Simulation        1   3  2018 Yr    9 of   14 Time  10: 1:51
  Original Simulation        1   4  2018 Yr    9 of   14 Time  10: 1:52
  Original Simulation        1   5  2018 Yr    9 of   14 Time  10: 1:53
  Original Simulation        1   6  2018 Yr    9 of   14 Time  10: 1:54
  Original Simulation        1   7  2018 Yr    9 of   14 Time  10: 1:55
  Original Simulation        1   8  2018 Yr    9 of   14 Time  10: 1:56
  Original Simulation        1   9  2018 Yr    9 of   14 Time  10: 1:56
  Original Simulation        1  10  2018 Yr    9 of   14 Time  10: 1:57
  Original Simulation        1  11  2018 Yr    9 of   14 Time  10: 1:58
  Original Simulation        1  12  2018 Yr    9 of   14 Time  10: 1:59
